// File: /nethome/nsoraba3/ECE_Cadence_Lab/Cadence/ECE6130Project/extracted.netlist
// Created: Sun Nov 27 23:57:07 2016
// Program "Calibre xRC"
// Version "v2015.2_27.20"
// 
simulator lang=spectre
include "/nethome/nsoraba3/ECE_Cadence_Lab/Cadence/ECE6130Project/extracted.netlist.pex"
subckt systemLayout_2 (  GND! BL\<0\> BL_B\<0\> BL_B\<1\> BL\<1\> BL\<2\> \
 BL_B\<2\> BL_B\<3\> BL\<3\> BL\<4\> BL_B\<4\> BL_B\<5\> BL\<5\> BL\<6\> \
 BL_B\<6\> BL_B\<7\> BL\<7\> A\<1\> A_B\<1\> BL\<8\> BL_B\<8\> BL_B\<9\> \
 BL\<9\> BL\<10\> BL_B\<10\> BL_B\<11\> BL\<11\> BL\<12\> BL_B\<12\> \
 BL_B\<13\> BL\<13\> BL\<14\> BL_B\<14\> BL_B\<15\> BL\<15\> A\<2\> A_B\<2\> \
 BL\<16\> BL_B\<16\> BL_B\<17\> BL\<17\> BL\<18\> BL_B\<18\> BL_B\<19\> \
 BL\<19\> BL\<20\> BL_B\<20\> BL_B\<21\> BL\<21\> BL\<22\> BL_B\<22\> \
 BL_B\<23\> BL\<23\> A\<3\> A_B\<3\> BL\<24\> BL_B\<24\> BL_B\<25\> BL\<25\> \
 BL\<26\> BL_B\<26\> BL_B\<27\> BL\<27\> BL\<28\> BL_B\<28\> BL_B\<29\> \
 BL\<29\> BL\<30\> BL_B\<30\> BL_B\<31\> BL\<31\> WL\<15\> WL\<14\> WL\<13\> \
 WL\<12\> WL\<11\> WL\<10\> WL\<9\> WL\<8\> WL\<7\> WL\<6\> WL\<5\> WL\<4\> \
 WL\<3\> WL\<2\> WL\<1\> WL\<0\> A\<0\> A_B\<0\> P VDD! )
// 
// VDD!	VDD!
// P	P
// A_B<0>	A_B<0>
// A<0>	A<0>
// WL<0>	WL<0>
// WL<1>	WL<1>
// WL<2>	WL<2>
// WL<3>	WL<3>
// WL<4>	WL<4>
// WL<5>	WL<5>
// WL<6>	WL<6>
// WL<7>	WL<7>
// WL<8>	WL<8>
// WL<9>	WL<9>
// WL<10>	WL<10>
// WL<11>	WL<11>
// WL<12>	WL<12>
// WL<13>	WL<13>
// WL<14>	WL<14>
// WL<15>	WL<15>
// BL<31>	BL<31>
// BL_B<31>	BL_B<31>
// BL_B<30>	BL_B<30>
// BL<30>	BL<30>
// BL<29>	BL<29>
// BL_B<29>	BL_B<29>
// BL_B<28>	BL_B<28>
// BL<28>	BL<28>
// BL<27>	BL<27>
// BL_B<27>	BL_B<27>
// BL_B<26>	BL_B<26>
// BL<26>	BL<26>
// BL<25>	BL<25>
// BL_B<25>	BL_B<25>
// BL_B<24>	BL_B<24>
// BL<24>	BL<24>
// A_B<3>	A_B<3>
// A<3>	A<3>
// BL<23>	BL<23>
// BL_B<23>	BL_B<23>
// BL_B<22>	BL_B<22>
// BL<22>	BL<22>
// BL<21>	BL<21>
// BL_B<21>	BL_B<21>
// BL_B<20>	BL_B<20>
// BL<20>	BL<20>
// BL<19>	BL<19>
// BL_B<19>	BL_B<19>
// BL_B<18>	BL_B<18>
// BL<18>	BL<18>
// BL<17>	BL<17>
// BL_B<17>	BL_B<17>
// BL_B<16>	BL_B<16>
// BL<16>	BL<16>
// A_B<2>	A_B<2>
// A<2>	A<2>
// BL<15>	BL<15>
// BL_B<15>	BL_B<15>
// BL_B<14>	BL_B<14>
// BL<14>	BL<14>
// BL<13>	BL<13>
// BL_B<13>	BL_B<13>
// BL_B<12>	BL_B<12>
// BL<12>	BL<12>
// BL<11>	BL<11>
// BL_B<11>	BL_B<11>
// BL_B<10>	BL_B<10>
// BL<10>	BL<10>
// BL<9>	BL<9>
// BL_B<9>	BL_B<9>
// BL_B<8>	BL_B<8>
// BL<8>	BL<8>
// A_B<1>	A_B<1>
// A<1>	A<1>
// BL<7>	BL<7>
// BL_B<7>	BL_B<7>
// BL_B<6>	BL_B<6>
// BL<6>	BL<6>
// BL<5>	BL<5>
// BL_B<5>	BL_B<5>
// BL_B<4>	BL_B<4>
// BL<4>	BL<4>
// BL<3>	BL<3>
// BL_B<3>	BL_B<3>
// BL_B<2>	BL_B<2>
// BL<2>	BL<2>
// BL<1>	BL<1>
// BL_B<1>	BL_B<1>
// BL_B<0>	BL_B<0>
// BL<0>	BL<0>
// GND!	GND!
mXinv\<15\>\/MNMOS ( N_WL_INV\<15\>_Xinv\<15\>\/MNMOS_d \
 N_WL\<15\>_Xinv\<15\>\/MNMOS_g N_GND!_Xinv\<15\>\/MNMOS_s \
 N_GND!_Xinv\<15\>\/MNMOS_b ) NMOS_VTL l=5e-08 w=2.5e-07 ad=1.00625e-13 \
 as=6.875e-14 pd=1.305e-06 ps=1.05e-06
mXinv\<14\>\/MNMOS ( N_WL_INV\<14\>_Xinv\<14\>\/MNMOS_d \
 N_WL\<14\>_Xinv\<14\>\/MNMOS_g N_GND!_Xinv\<14\>\/MNMOS_s \
 N_GND!_Xinv\<15\>\/MNMOS_b ) NMOS_VTL l=5e-08 w=2.5e-07 ad=1.00625e-13 \
 as=6.875e-14 pd=1.305e-06 ps=1.05e-06
mXinv\<13\>\/MNMOS ( N_WL_INV\<13\>_Xinv\<13\>\/MNMOS_d \
 N_WL\<13\>_Xinv\<13\>\/MNMOS_g N_GND!_Xinv\<13\>\/MNMOS_s \
 N_GND!_Xinv\<13\>\/MNMOS_b ) NMOS_VTL l=5e-08 w=2.5e-07 ad=1.00625e-13 \
 as=6.875e-14 pd=1.305e-06 ps=1.05e-06
mXinv\<12\>\/MNMOS ( N_WL_INV\<12\>_Xinv\<12\>\/MNMOS_d \
 N_WL\<12\>_Xinv\<12\>\/MNMOS_g N_GND!_Xinv\<12\>\/MNMOS_s \
 N_GND!_Xinv\<13\>\/MNMOS_b ) NMOS_VTL l=5e-08 w=2.5e-07 ad=1.00625e-13 \
 as=6.875e-14 pd=1.305e-06 ps=1.05e-06
mXinv\<11\>\/MNMOS ( N_WL_INV\<11\>_Xinv\<11\>\/MNMOS_d \
 N_WL\<11\>_Xinv\<11\>\/MNMOS_g N_GND!_Xinv\<11\>\/MNMOS_s \
 N_GND!_Xinv\<11\>\/MNMOS_b ) NMOS_VTL l=5e-08 w=2.5e-07 ad=1.00625e-13 \
 as=6.875e-14 pd=1.305e-06 ps=1.05e-06
mXinv\<10\>\/MNMOS ( N_WL_INV\<10\>_Xinv\<10\>\/MNMOS_d \
 N_WL\<10\>_Xinv\<10\>\/MNMOS_g N_GND!_Xinv\<10\>\/MNMOS_s \
 N_GND!_Xinv\<11\>\/MNMOS_b ) NMOS_VTL l=5e-08 w=2.5e-07 ad=1.00625e-13 \
 as=6.875e-14 pd=1.305e-06 ps=1.05e-06
mXinv\<9\>\/MNMOS ( N_WL_INV\<9\>_Xinv\<9\>\/MNMOS_d \
 N_WL\<9\>_Xinv\<9\>\/MNMOS_g N_GND!_Xinv\<9\>\/MNMOS_s \
 N_GND!_Xinv\<9\>\/MNMOS_b ) NMOS_VTL l=5e-08 w=2.5e-07 ad=1.00625e-13 \
 as=6.875e-14 pd=1.305e-06 ps=1.05e-06
mXinv\<8\>\/MNMOS ( N_WL_INV\<8\>_Xinv\<8\>\/MNMOS_d \
 N_WL\<8\>_Xinv\<8\>\/MNMOS_g N_GND!_Xinv\<8\>\/MNMOS_s \
 N_GND!_Xinv\<9\>\/MNMOS_b ) NMOS_VTL l=5e-08 w=2.5e-07 ad=1.00625e-13 \
 as=6.875e-14 pd=1.305e-06 ps=1.05e-06
mXinv\<7\>\/MNMOS ( N_WL_INV\<7\>_Xinv\<7\>\/MNMOS_d \
 N_WL\<7\>_Xinv\<7\>\/MNMOS_g N_GND!_Xinv\<7\>\/MNMOS_s \
 N_GND!_Xinv\<7\>\/MNMOS_b ) NMOS_VTL l=5e-08 w=2.5e-07 ad=1.00625e-13 \
 as=6.875e-14 pd=1.305e-06 ps=1.05e-06
mXinv\<6\>\/MNMOS ( N_WL_INV\<6\>_Xinv\<6\>\/MNMOS_d \
 N_WL\<6\>_Xinv\<6\>\/MNMOS_g N_GND!_Xinv\<6\>\/MNMOS_s \
 N_GND!_Xinv\<7\>\/MNMOS_b ) NMOS_VTL l=5e-08 w=2.5e-07 ad=1.00625e-13 \
 as=6.875e-14 pd=1.305e-06 ps=1.05e-06
mXinv\<5\>\/MNMOS ( N_WL_INV\<5\>_Xinv\<5\>\/MNMOS_d \
 N_WL\<5\>_Xinv\<5\>\/MNMOS_g N_GND!_Xinv\<5\>\/MNMOS_s \
 N_GND!_Xinv\<5\>\/MNMOS_b ) NMOS_VTL l=5e-08 w=2.5e-07 ad=1.00625e-13 \
 as=6.875e-14 pd=1.305e-06 ps=1.05e-06
mXinv\<4\>\/MNMOS ( N_WL_INV\<4\>_Xinv\<4\>\/MNMOS_d \
 N_WL\<4\>_Xinv\<4\>\/MNMOS_g N_GND!_Xinv\<4\>\/MNMOS_s \
 N_GND!_Xinv\<5\>\/MNMOS_b ) NMOS_VTL l=5e-08 w=2.5e-07 ad=1.00625e-13 \
 as=6.875e-14 pd=1.305e-06 ps=1.05e-06
mXinv\<3\>\/MNMOS ( N_WL_INV\<3\>_Xinv\<3\>\/MNMOS_d \
 N_WL\<3\>_Xinv\<3\>\/MNMOS_g N_GND!_Xinv\<3\>\/MNMOS_s \
 N_GND!_Xinv\<3\>\/MNMOS_b ) NMOS_VTL l=5e-08 w=2.5e-07 ad=1.00625e-13 \
 as=6.875e-14 pd=1.305e-06 ps=1.05e-06
mXinv\<2\>\/MNMOS ( N_WL_INV\<2\>_Xinv\<2\>\/MNMOS_d \
 N_WL\<2\>_Xinv\<2\>\/MNMOS_g N_GND!_Xinv\<2\>\/MNMOS_s \
 N_GND!_Xinv\<3\>\/MNMOS_b ) NMOS_VTL l=5e-08 w=2.5e-07 ad=1.00625e-13 \
 as=6.875e-14 pd=1.305e-06 ps=1.05e-06
mXinv\<1\>\/MNMOS ( N_WL_INV\<1\>_Xinv\<1\>\/MNMOS_d \
 N_WL\<1\>_Xinv\<1\>\/MNMOS_g N_GND!_Xinv\<1\>\/MNMOS_s \
 N_GND!_Xinv\<1\>\/MNMOS_b ) NMOS_VTL l=5e-08 w=2.5e-07 ad=1.00625e-13 \
 as=6.875e-14 pd=1.305e-06 ps=1.05e-06
mXinv\<0\>\/MNMOS ( N_WL_INV\<0\>_Xinv\<0\>\/MNMOS_d \
 N_WL\<0\>_Xinv\<0\>\/MNMOS_g N_GND!_Xinv\<0\>\/MNMOS_s \
 N_GND!_Xinv\<1\>\/MNMOS_b ) NMOS_VTL l=5e-08 w=2.5e-07 ad=1.00625e-13 \
 as=6.875e-14 pd=1.305e-06 ps=1.05e-06
mXI5\<15\>\/Maccess ( N_BL_I\<0\>_XI5\<15\>\/Maccess_d \
 N_WL_INV\<15\>_XI5\<15\>\/Maccess_g N_XI5\<15\>\/SRAM_XI5\<15\>\/Maccess_s \
 N_GND!_XI5\<15\>\/Maccess_b ) NMOS_VTL l=5e-08 w=1.25e-07 ad=4.625e-14 \
 as=6.79375e-14 pd=9.9e-07 ps=1.095e-06
mXI5\<14\>\/Maccess ( N_BL_I\<0\>_XI5\<15\>\/Maccess_d \
 N_WL_INV\<14\>_XI5\<14\>\/Maccess_g N_XI5\<14\>\/SRAM_XI5\<14\>\/Maccess_s \
 N_GND!_XI5\<15\>\/Maccess_b ) NMOS_VTL l=5e-08 w=1.25e-07 ad=4.625e-14 \
 as=6.79375e-14 pd=9.9e-07 ps=1.095e-06
mXI5\<13\>\/Maccess ( N_BL_I\<0\>_XI5\<13\>\/Maccess_d \
 N_WL_INV\<13\>_XI5\<13\>\/Maccess_g N_XI5\<13\>\/SRAM_XI5\<13\>\/Maccess_s \
 N_GND!_XI5\<13\>\/Maccess_b ) NMOS_VTL l=5e-08 w=1.25e-07 ad=4.625e-14 \
 as=6.79375e-14 pd=9.9e-07 ps=1.095e-06
mXI5\<12\>\/Maccess ( N_BL_I\<0\>_XI5\<13\>\/Maccess_d \
 N_WL_INV\<12\>_XI5\<12\>\/Maccess_g N_XI5\<12\>\/SRAM_XI5\<12\>\/Maccess_s \
 N_GND!_XI5\<13\>\/Maccess_b ) NMOS_VTL l=5e-08 w=1.25e-07 ad=4.625e-14 \
 as=6.79375e-14 pd=9.9e-07 ps=1.095e-06
mXI5\<11\>\/Maccess ( N_BL_I\<0\>_XI5\<11\>\/Maccess_d \
 N_WL_INV\<11\>_XI5\<11\>\/Maccess_g N_XI5\<11\>\/SRAM_XI5\<11\>\/Maccess_s \
 N_GND!_XI5\<11\>\/Maccess_b ) NMOS_VTL l=5e-08 w=1.25e-07 ad=4.625e-14 \
 as=6.79375e-14 pd=9.9e-07 ps=1.095e-06
mXI5\<10\>\/Maccess ( N_BL_I\<0\>_XI5\<11\>\/Maccess_d \
 N_WL_INV\<10\>_XI5\<10\>\/Maccess_g N_XI5\<10\>\/SRAM_XI5\<10\>\/Maccess_s \
 N_GND!_XI5\<11\>\/Maccess_b ) NMOS_VTL l=5e-08 w=1.25e-07 ad=4.625e-14 \
 as=6.79375e-14 pd=9.9e-07 ps=1.095e-06
mXI5\<9\>\/Maccess ( N_BL_I\<0\>_XI5\<9\>\/Maccess_d \
 N_WL_INV\<9\>_XI5\<9\>\/Maccess_g N_XI5\<9\>\/SRAM_XI5\<9\>\/Maccess_s \
 N_GND!_XI5\<9\>\/Maccess_b ) NMOS_VTL l=5e-08 w=1.25e-07 ad=4.625e-14 \
 as=6.79375e-14 pd=9.9e-07 ps=1.095e-06
mXI5\<8\>\/Maccess ( N_BL_I\<0\>_XI5\<9\>\/Maccess_d \
 N_WL_INV\<8\>_XI5\<8\>\/Maccess_g N_XI5\<8\>\/SRAM_XI5\<8\>\/Maccess_s \
 N_GND!_XI5\<9\>\/Maccess_b ) NMOS_VTL l=5e-08 w=1.25e-07 ad=4.625e-14 \
 as=6.79375e-14 pd=9.9e-07 ps=1.095e-06
mXI5\<7\>\/Maccess ( N_BL_I\<0\>_XI5\<7\>\/Maccess_d \
 N_WL_INV\<7\>_XI5\<7\>\/Maccess_g N_XI5\<7\>\/SRAM_XI5\<7\>\/Maccess_s \
 N_GND!_XI5\<7\>\/Maccess_b ) NMOS_VTL l=5e-08 w=1.25e-07 ad=4.625e-14 \
 as=6.79375e-14 pd=9.9e-07 ps=1.095e-06
mXI5\<6\>\/Maccess ( N_BL_I\<0\>_XI5\<7\>\/Maccess_d \
 N_WL_INV\<6\>_XI5\<6\>\/Maccess_g N_XI5\<6\>\/SRAM_XI5\<6\>\/Maccess_s \
 N_GND!_XI5\<7\>\/Maccess_b ) NMOS_VTL l=5e-08 w=1.25e-07 ad=4.625e-14 \
 as=6.79375e-14 pd=9.9e-07 ps=1.095e-06
mXI5\<5\>\/Maccess ( N_BL_I\<0\>_XI5\<5\>\/Maccess_d \
 N_WL_INV\<5\>_XI5\<5\>\/Maccess_g N_XI5\<5\>\/SRAM_XI5\<5\>\/Maccess_s \
 N_GND!_XI5\<5\>\/Maccess_b ) NMOS_VTL l=5e-08 w=1.25e-07 ad=4.625e-14 \
 as=6.79375e-14 pd=9.9e-07 ps=1.095e-06
mXI5\<4\>\/Maccess ( N_BL_I\<0\>_XI5\<5\>\/Maccess_d \
 N_WL_INV\<4\>_XI5\<4\>\/Maccess_g N_XI5\<4\>\/SRAM_XI5\<4\>\/Maccess_s \
 N_GND!_XI5\<5\>\/Maccess_b ) NMOS_VTL l=5e-08 w=1.25e-07 ad=4.625e-14 \
 as=6.79375e-14 pd=9.9e-07 ps=1.095e-06
mXI5\<3\>\/Maccess ( N_BL_I\<0\>_XI5\<3\>\/Maccess_d \
 N_WL_INV\<3\>_XI5\<3\>\/Maccess_g N_XI5\<3\>\/SRAM_XI5\<3\>\/Maccess_s \
 N_GND!_XI5\<3\>\/Maccess_b ) NMOS_VTL l=5e-08 w=1.25e-07 ad=4.625e-14 \
 as=6.79375e-14 pd=9.9e-07 ps=1.095e-06
mXI5\<2\>\/Maccess ( N_BL_I\<0\>_XI5\<3\>\/Maccess_d \
 N_WL_INV\<2\>_XI5\<2\>\/Maccess_g N_XI5\<2\>\/SRAM_XI5\<2\>\/Maccess_s \
 N_GND!_XI5\<3\>\/Maccess_b ) NMOS_VTL l=5e-08 w=1.25e-07 ad=4.625e-14 \
 as=6.79375e-14 pd=9.9e-07 ps=1.095e-06
mXI5\<1\>\/Maccess ( N_BL_I\<0\>_XI5\<1\>\/Maccess_d \
 N_WL_INV\<1\>_XI5\<1\>\/Maccess_g N_XI5\<1\>\/SRAM_XI5\<1\>\/Maccess_s \
 N_GND!_XI5\<1\>\/Maccess_b ) NMOS_VTL l=5e-08 w=1.25e-07 ad=4.625e-14 \
 as=6.79375e-14 pd=9.9e-07 ps=1.095e-06
mXI5\<0\>\/Maccess ( N_BL_I\<0\>_XI5\<1\>\/Maccess_d \
 N_WL_INV\<0\>_XI5\<0\>\/Maccess_g N_XI5\<0\>\/SRAM_XI5\<0\>\/Maccess_s \
 N_GND!_XI5\<1\>\/Maccess_b ) NMOS_VTL l=5e-08 w=1.25e-07 ad=4.625e-14 \
 as=6.79375e-14 pd=9.9e-07 ps=1.095e-06
mXtgate\<0\>\/MM0 ( N_BL_I\<0\>_Xtgate\<0\>\/MM0_d N_A\<0\>_Xtgate\<0\>\/MM0_g \
 N_BL\<0\>_Xtgate\<0\>\/MM0_s N_GND!_Xtgate\<0\>\/MM0_b ) NMOS_VTL l=5e-08 \
 w=1.35e-07 ad=2.0925e-14 as=2.0925e-14 pd=5.8e-07 ps=5.8e-07
mXI5\<15\>\/Mnmos ( N_XI5\<15\>\/SRAM_XI5\<15\>\/Maccess_s \
 N_XI5\<15\>\/SRAM_B_XI5\<15\>\/Mnmos_g N_GND!_XI5\<15\>\/Mnmos_s \
 N_GND!_XI5\<15\>\/Maccess_b ) NMOS_VTL l=5e-08 w=2.35e-07 ad=6.79375e-14 \
 as=1.406e-13 pd=1.095e-06 ps=2.66e-06
mXI5\<14\>\/Mnmos ( N_XI5\<14\>\/SRAM_XI5\<14\>\/Maccess_s \
 N_XI5\<14\>\/SRAM_B_XI5\<14\>\/Mnmos_g N_GND!_XI5\<15\>\/Mnmos_s \
 N_GND!_XI5\<15\>\/Maccess_b ) NMOS_VTL l=5e-08 w=2.35e-07 ad=6.79375e-14 \
 as=1.406e-13 pd=1.095e-06 ps=2.66e-06
mXI5\<13\>\/Mnmos ( N_XI5\<13\>\/SRAM_XI5\<13\>\/Maccess_s \
 N_XI5\<13\>\/SRAM_B_XI5\<13\>\/Mnmos_g N_GND!_XI5\<13\>\/Mnmos_s \
 N_GND!_XI5\<13\>\/Maccess_b ) NMOS_VTL l=5e-08 w=2.35e-07 ad=6.79375e-14 \
 as=1.406e-13 pd=1.095e-06 ps=2.66e-06
mXI5\<12\>\/Mnmos ( N_XI5\<12\>\/SRAM_XI5\<12\>\/Maccess_s \
 N_XI5\<12\>\/SRAM_B_XI5\<12\>\/Mnmos_g N_GND!_XI5\<13\>\/Mnmos_s \
 N_GND!_XI5\<13\>\/Maccess_b ) NMOS_VTL l=5e-08 w=2.35e-07 ad=6.79375e-14 \
 as=1.406e-13 pd=1.095e-06 ps=2.66e-06
mXI5\<11\>\/Mnmos ( N_XI5\<11\>\/SRAM_XI5\<11\>\/Maccess_s \
 N_XI5\<11\>\/SRAM_B_XI5\<11\>\/Mnmos_g N_GND!_XI5\<11\>\/Mnmos_s \
 N_GND!_XI5\<11\>\/Maccess_b ) NMOS_VTL l=5e-08 w=2.35e-07 ad=6.79375e-14 \
 as=1.406e-13 pd=1.095e-06 ps=2.66e-06
mXI5\<10\>\/Mnmos ( N_XI5\<10\>\/SRAM_XI5\<10\>\/Maccess_s \
 N_XI5\<10\>\/SRAM_B_XI5\<10\>\/Mnmos_g N_GND!_XI5\<11\>\/Mnmos_s \
 N_GND!_XI5\<11\>\/Maccess_b ) NMOS_VTL l=5e-08 w=2.35e-07 ad=6.79375e-14 \
 as=1.406e-13 pd=1.095e-06 ps=2.66e-06
mXI5\<9\>\/Mnmos ( N_XI5\<9\>\/SRAM_XI5\<9\>\/Maccess_s \
 N_XI5\<9\>\/SRAM_B_XI5\<9\>\/Mnmos_g N_GND!_XI5\<9\>\/Mnmos_s \
 N_GND!_XI5\<9\>\/Maccess_b ) NMOS_VTL l=5e-08 w=2.35e-07 ad=6.79375e-14 \
 as=1.406e-13 pd=1.095e-06 ps=2.66e-06
mXI5\<8\>\/Mnmos ( N_XI5\<8\>\/SRAM_XI5\<8\>\/Maccess_s \
 N_XI5\<8\>\/SRAM_B_XI5\<8\>\/Mnmos_g N_GND!_XI5\<9\>\/Mnmos_s \
 N_GND!_XI5\<9\>\/Maccess_b ) NMOS_VTL l=5e-08 w=2.35e-07 ad=6.79375e-14 \
 as=1.406e-13 pd=1.095e-06 ps=2.66e-06
mXI5\<7\>\/Mnmos ( N_XI5\<7\>\/SRAM_XI5\<7\>\/Maccess_s \
 N_XI5\<7\>\/SRAM_B_XI5\<7\>\/Mnmos_g N_GND!_XI5\<7\>\/Mnmos_s \
 N_GND!_XI5\<7\>\/Maccess_b ) NMOS_VTL l=5e-08 w=2.35e-07 ad=6.79375e-14 \
 as=1.406e-13 pd=1.095e-06 ps=2.66e-06
mXI5\<6\>\/Mnmos ( N_XI5\<6\>\/SRAM_XI5\<6\>\/Maccess_s \
 N_XI5\<6\>\/SRAM_B_XI5\<6\>\/Mnmos_g N_GND!_XI5\<7\>\/Mnmos_s \
 N_GND!_XI5\<7\>\/Maccess_b ) NMOS_VTL l=5e-08 w=2.35e-07 ad=6.79375e-14 \
 as=1.406e-13 pd=1.095e-06 ps=2.66e-06
mXI5\<5\>\/Mnmos ( N_XI5\<5\>\/SRAM_XI5\<5\>\/Maccess_s \
 N_XI5\<5\>\/SRAM_B_XI5\<5\>\/Mnmos_g N_GND!_XI5\<5\>\/Mnmos_s \
 N_GND!_XI5\<5\>\/Maccess_b ) NMOS_VTL l=5e-08 w=2.35e-07 ad=6.79375e-14 \
 as=1.406e-13 pd=1.095e-06 ps=2.66e-06
mXI5\<4\>\/Mnmos ( N_XI5\<4\>\/SRAM_XI5\<4\>\/Maccess_s \
 N_XI5\<4\>\/SRAM_B_XI5\<4\>\/Mnmos_g N_GND!_XI5\<5\>\/Mnmos_s \
 N_GND!_XI5\<5\>\/Maccess_b ) NMOS_VTL l=5e-08 w=2.35e-07 ad=6.79375e-14 \
 as=1.406e-13 pd=1.095e-06 ps=2.66e-06
mXI5\<3\>\/Mnmos ( N_XI5\<3\>\/SRAM_XI5\<3\>\/Maccess_s \
 N_XI5\<3\>\/SRAM_B_XI5\<3\>\/Mnmos_g N_GND!_XI5\<3\>\/Mnmos_s \
 N_GND!_XI5\<3\>\/Maccess_b ) NMOS_VTL l=5e-08 w=2.35e-07 ad=6.79375e-14 \
 as=1.406e-13 pd=1.095e-06 ps=2.66e-06
mXI5\<2\>\/Mnmos ( N_XI5\<2\>\/SRAM_XI5\<2\>\/Maccess_s \
 N_XI5\<2\>\/SRAM_B_XI5\<2\>\/Mnmos_g N_GND!_XI5\<3\>\/Mnmos_s \
 N_GND!_XI5\<3\>\/Maccess_b ) NMOS_VTL l=5e-08 w=2.35e-07 ad=6.79375e-14 \
 as=1.406e-13 pd=1.095e-06 ps=2.66e-06
mXI5\<1\>\/Mnmos ( N_XI5\<1\>\/SRAM_XI5\<1\>\/Maccess_s \
 N_XI5\<1\>\/SRAM_B_XI5\<1\>\/Mnmos_g N_GND!_XI5\<1\>\/Mnmos_s \
 N_GND!_XI5\<1\>\/Maccess_b ) NMOS_VTL l=5e-08 w=2.35e-07 ad=6.79375e-14 \
 as=1.406e-13 pd=1.095e-06 ps=2.66e-06
mXI5\<0\>\/Mnmos ( N_XI5\<0\>\/SRAM_XI5\<0\>\/Maccess_s \
 N_XI5\<0\>\/SRAM_B_XI5\<0\>\/Mnmos_g N_GND!_XI5\<1\>\/Mnmos_s \
 N_GND!_XI5\<1\>\/Maccess_b ) NMOS_VTL l=5e-08 w=2.35e-07 ad=6.79375e-14 \
 as=1.406e-13 pd=1.095e-06 ps=2.66e-06
mXI5\<15\>\/Mnmos_b ( N_XI5\<15\>\/SRAM_B_XI5\<15\>\/Mnmos_b_d \
 N_XI5\<15\>\/SRAM_XI5\<15\>\/Mnmos_b_g N_GND!_XI5\<15\>\/Mnmos_s \
 N_GND!_XI5\<15\>\/Maccess_b ) NMOS_VTL l=5e-08 w=2.35e-07 ad=7.0875e-14 \
 as=1.406e-13 pd=1.12e-06 ps=2.66e-06
mXI5\<14\>\/Mnmos_b ( N_XI5\<14\>\/SRAM_B_XI5\<14\>\/Mnmos_b_d \
 N_XI5\<14\>\/SRAM_XI5\<14\>\/Mnmos_b_g N_GND!_XI5\<15\>\/Mnmos_s \
 N_GND!_XI5\<15\>\/Maccess_b ) NMOS_VTL l=5e-08 w=2.35e-07 ad=7.0875e-14 \
 as=1.406e-13 pd=1.12e-06 ps=2.66e-06
mXI5\<13\>\/Mnmos_b ( N_XI5\<13\>\/SRAM_B_XI5\<13\>\/Mnmos_b_d \
 N_XI5\<13\>\/SRAM_XI5\<13\>\/Mnmos_b_g N_GND!_XI5\<13\>\/Mnmos_s \
 N_GND!_XI5\<13\>\/Maccess_b ) NMOS_VTL l=5e-08 w=2.35e-07 ad=7.0875e-14 \
 as=1.406e-13 pd=1.12e-06 ps=2.66e-06
mXI5\<12\>\/Mnmos_b ( N_XI5\<12\>\/SRAM_B_XI5\<12\>\/Mnmos_b_d \
 N_XI5\<12\>\/SRAM_XI5\<12\>\/Mnmos_b_g N_GND!_XI5\<13\>\/Mnmos_s \
 N_GND!_XI5\<13\>\/Maccess_b ) NMOS_VTL l=5e-08 w=2.35e-07 ad=7.0875e-14 \
 as=1.406e-13 pd=1.12e-06 ps=2.66e-06
mXI5\<11\>\/Mnmos_b ( N_XI5\<11\>\/SRAM_B_XI5\<11\>\/Mnmos_b_d \
 N_XI5\<11\>\/SRAM_XI5\<11\>\/Mnmos_b_g N_GND!_XI5\<11\>\/Mnmos_s \
 N_GND!_XI5\<11\>\/Maccess_b ) NMOS_VTL l=5e-08 w=2.35e-07 ad=7.0875e-14 \
 as=1.406e-13 pd=1.12e-06 ps=2.66e-06
mXI5\<10\>\/Mnmos_b ( N_XI5\<10\>\/SRAM_B_XI5\<10\>\/Mnmos_b_d \
 N_XI5\<10\>\/SRAM_XI5\<10\>\/Mnmos_b_g N_GND!_XI5\<11\>\/Mnmos_s \
 N_GND!_XI5\<11\>\/Maccess_b ) NMOS_VTL l=5e-08 w=2.35e-07 ad=7.0875e-14 \
 as=1.406e-13 pd=1.12e-06 ps=2.66e-06
mXI5\<9\>\/Mnmos_b ( N_XI5\<9\>\/SRAM_B_XI5\<9\>\/Mnmos_b_d \
 N_XI5\<9\>\/SRAM_XI5\<9\>\/Mnmos_b_g N_GND!_XI5\<9\>\/Mnmos_s \
 N_GND!_XI5\<9\>\/Maccess_b ) NMOS_VTL l=5e-08 w=2.35e-07 ad=7.0875e-14 \
 as=1.406e-13 pd=1.12e-06 ps=2.66e-06
mXI5\<8\>\/Mnmos_b ( N_XI5\<8\>\/SRAM_B_XI5\<8\>\/Mnmos_b_d \
 N_XI5\<8\>\/SRAM_XI5\<8\>\/Mnmos_b_g N_GND!_XI5\<9\>\/Mnmos_s \
 N_GND!_XI5\<9\>\/Maccess_b ) NMOS_VTL l=5e-08 w=2.35e-07 ad=7.0875e-14 \
 as=1.406e-13 pd=1.12e-06 ps=2.66e-06
mXI5\<7\>\/Mnmos_b ( N_XI5\<7\>\/SRAM_B_XI5\<7\>\/Mnmos_b_d \
 N_XI5\<7\>\/SRAM_XI5\<7\>\/Mnmos_b_g N_GND!_XI5\<7\>\/Mnmos_s \
 N_GND!_XI5\<7\>\/Maccess_b ) NMOS_VTL l=5e-08 w=2.35e-07 ad=7.0875e-14 \
 as=1.406e-13 pd=1.12e-06 ps=2.66e-06
mXI5\<6\>\/Mnmos_b ( N_XI5\<6\>\/SRAM_B_XI5\<6\>\/Mnmos_b_d \
 N_XI5\<6\>\/SRAM_XI5\<6\>\/Mnmos_b_g N_GND!_XI5\<7\>\/Mnmos_s \
 N_GND!_XI5\<7\>\/Maccess_b ) NMOS_VTL l=5e-08 w=2.35e-07 ad=7.0875e-14 \
 as=1.406e-13 pd=1.12e-06 ps=2.66e-06
mXI5\<5\>\/Mnmos_b ( N_XI5\<5\>\/SRAM_B_XI5\<5\>\/Mnmos_b_d \
 N_XI5\<5\>\/SRAM_XI5\<5\>\/Mnmos_b_g N_GND!_XI5\<5\>\/Mnmos_s \
 N_GND!_XI5\<5\>\/Maccess_b ) NMOS_VTL l=5e-08 w=2.35e-07 ad=7.0875e-14 \
 as=1.406e-13 pd=1.12e-06 ps=2.66e-06
mXI5\<4\>\/Mnmos_b ( N_XI5\<4\>\/SRAM_B_XI5\<4\>\/Mnmos_b_d \
 N_XI5\<4\>\/SRAM_XI5\<4\>\/Mnmos_b_g N_GND!_XI5\<5\>\/Mnmos_s \
 N_GND!_XI5\<5\>\/Maccess_b ) NMOS_VTL l=5e-08 w=2.35e-07 ad=7.0875e-14 \
 as=1.406e-13 pd=1.12e-06 ps=2.66e-06
mXI5\<3\>\/Mnmos_b ( N_XI5\<3\>\/SRAM_B_XI5\<3\>\/Mnmos_b_d \
 N_XI5\<3\>\/SRAM_XI5\<3\>\/Mnmos_b_g N_GND!_XI5\<3\>\/Mnmos_s \
 N_GND!_XI5\<3\>\/Maccess_b ) NMOS_VTL l=5e-08 w=2.35e-07 ad=7.0875e-14 \
 as=1.406e-13 pd=1.12e-06 ps=2.66e-06
mXI5\<2\>\/Mnmos_b ( N_XI5\<2\>\/SRAM_B_XI5\<2\>\/Mnmos_b_d \
 N_XI5\<2\>\/SRAM_XI5\<2\>\/Mnmos_b_g N_GND!_XI5\<3\>\/Mnmos_s \
 N_GND!_XI5\<3\>\/Maccess_b ) NMOS_VTL l=5e-08 w=2.35e-07 ad=7.0875e-14 \
 as=1.406e-13 pd=1.12e-06 ps=2.66e-06
mXI5\<1\>\/Mnmos_b ( N_XI5\<1\>\/SRAM_B_XI5\<1\>\/Mnmos_b_d \
 N_XI5\<1\>\/SRAM_XI5\<1\>\/Mnmos_b_g N_GND!_XI5\<1\>\/Mnmos_s \
 N_GND!_XI5\<1\>\/Maccess_b ) NMOS_VTL l=5e-08 w=2.35e-07 ad=7.0875e-14 \
 as=1.406e-13 pd=1.12e-06 ps=2.66e-06
mXI5\<0\>\/Mnmos_b ( N_XI5\<0\>\/SRAM_B_XI5\<0\>\/Mnmos_b_d \
 N_XI5\<0\>\/SRAM_XI5\<0\>\/Mnmos_b_g N_GND!_XI5\<1\>\/Mnmos_s \
 N_GND!_XI5\<1\>\/Maccess_b ) NMOS_VTL l=5e-08 w=2.35e-07 ad=7.0875e-14 \
 as=1.406e-13 pd=1.12e-06 ps=2.66e-06
mXtgate\<0\>\/MNMOS ( N_BL_I_B\<0\>_Xtgate\<0\>\/MNMOS_d \
 N_A\<0\>_Xtgate\<0\>\/MNMOS_g N_BL_B\<0\>_Xtgate\<0\>\/MNMOS_s \
 N_GND!_Xtgate\<0\>\/MM0_b ) NMOS_VTL l=5e-08 w=1.35e-07 ad=2.0925e-14 \
 as=2.0925e-14 pd=5.8e-07 ps=5.8e-07
mXI5\<15\>\/Maccess_b ( N_BL_I_B\<0\>_XI5\<15\>\/Maccess_b_d \
 N_WL_INV\<15\>_XI5\<15\>\/Maccess_b_g \
 N_XI5\<15\>\/SRAM_B_XI5\<15\>\/Mnmos_b_d N_GND!_XI5\<15\>\/Maccess_b ) \
 NMOS_VTL l=5e-08 w=1.25e-07 ad=4.625e-14 as=7.0875e-14 pd=9.9e-07 ps=1.12e-06
mXI5\<14\>\/Maccess_b ( N_BL_I_B\<0\>_XI5\<15\>\/Maccess_b_d \
 N_WL_INV\<14\>_XI5\<14\>\/Maccess_b_g \
 N_XI5\<14\>\/SRAM_B_XI5\<14\>\/Mnmos_b_d N_GND!_XI5\<15\>\/Maccess_b ) \
 NMOS_VTL l=5e-08 w=1.25e-07 ad=4.625e-14 as=7.0875e-14 pd=9.9e-07 ps=1.12e-06
mXI5\<13\>\/Maccess_b ( N_BL_I_B\<0\>_XI5\<13\>\/Maccess_b_d \
 N_WL_INV\<13\>_XI5\<13\>\/Maccess_b_g \
 N_XI5\<13\>\/SRAM_B_XI5\<13\>\/Mnmos_b_d N_GND!_XI5\<13\>\/Maccess_b ) \
 NMOS_VTL l=5e-08 w=1.25e-07 ad=4.625e-14 as=7.0875e-14 pd=9.9e-07 ps=1.12e-06
mXI5\<12\>\/Maccess_b ( N_BL_I_B\<0\>_XI5\<13\>\/Maccess_b_d \
 N_WL_INV\<12\>_XI5\<12\>\/Maccess_b_g \
 N_XI5\<12\>\/SRAM_B_XI5\<12\>\/Mnmos_b_d N_GND!_XI5\<13\>\/Maccess_b ) \
 NMOS_VTL l=5e-08 w=1.25e-07 ad=4.625e-14 as=7.0875e-14 pd=9.9e-07 ps=1.12e-06
mXI5\<11\>\/Maccess_b ( N_BL_I_B\<0\>_XI5\<11\>\/Maccess_b_d \
 N_WL_INV\<11\>_XI5\<11\>\/Maccess_b_g \
 N_XI5\<11\>\/SRAM_B_XI5\<11\>\/Mnmos_b_d N_GND!_XI5\<11\>\/Maccess_b ) \
 NMOS_VTL l=5e-08 w=1.25e-07 ad=4.625e-14 as=7.0875e-14 pd=9.9e-07 ps=1.12e-06
mXI5\<10\>\/Maccess_b ( N_BL_I_B\<0\>_XI5\<11\>\/Maccess_b_d \
 N_WL_INV\<10\>_XI5\<10\>\/Maccess_b_g \
 N_XI5\<10\>\/SRAM_B_XI5\<10\>\/Mnmos_b_d N_GND!_XI5\<11\>\/Maccess_b ) \
 NMOS_VTL l=5e-08 w=1.25e-07 ad=4.625e-14 as=7.0875e-14 pd=9.9e-07 ps=1.12e-06
mXI5\<9\>\/Maccess_b ( N_BL_I_B\<0\>_XI5\<9\>\/Maccess_b_d \
 N_WL_INV\<9\>_XI5\<9\>\/Maccess_b_g N_XI5\<9\>\/SRAM_B_XI5\<9\>\/Mnmos_b_d \
 N_GND!_XI5\<9\>\/Maccess_b ) NMOS_VTL l=5e-08 w=1.25e-07 ad=4.625e-14 \
 as=7.0875e-14 pd=9.9e-07 ps=1.12e-06
mXI5\<8\>\/Maccess_b ( N_BL_I_B\<0\>_XI5\<9\>\/Maccess_b_d \
 N_WL_INV\<8\>_XI5\<8\>\/Maccess_b_g N_XI5\<8\>\/SRAM_B_XI5\<8\>\/Mnmos_b_d \
 N_GND!_XI5\<9\>\/Maccess_b ) NMOS_VTL l=5e-08 w=1.25e-07 ad=4.625e-14 \
 as=7.0875e-14 pd=9.9e-07 ps=1.12e-06
mXI5\<7\>\/Maccess_b ( N_BL_I_B\<0\>_XI5\<7\>\/Maccess_b_d \
 N_WL_INV\<7\>_XI5\<7\>\/Maccess_b_g N_XI5\<7\>\/SRAM_B_XI5\<7\>\/Mnmos_b_d \
 N_GND!_XI5\<7\>\/Maccess_b ) NMOS_VTL l=5e-08 w=1.25e-07 ad=4.625e-14 \
 as=7.0875e-14 pd=9.9e-07 ps=1.12e-06
mXI5\<6\>\/Maccess_b ( N_BL_I_B\<0\>_XI5\<7\>\/Maccess_b_d \
 N_WL_INV\<6\>_XI5\<6\>\/Maccess_b_g N_XI5\<6\>\/SRAM_B_XI5\<6\>\/Mnmos_b_d \
 N_GND!_XI5\<7\>\/Maccess_b ) NMOS_VTL l=5e-08 w=1.25e-07 ad=4.625e-14 \
 as=7.0875e-14 pd=9.9e-07 ps=1.12e-06
mXI5\<5\>\/Maccess_b ( N_BL_I_B\<0\>_XI5\<5\>\/Maccess_b_d \
 N_WL_INV\<5\>_XI5\<5\>\/Maccess_b_g N_XI5\<5\>\/SRAM_B_XI5\<5\>\/Mnmos_b_d \
 N_GND!_XI5\<5\>\/Maccess_b ) NMOS_VTL l=5e-08 w=1.25e-07 ad=4.625e-14 \
 as=7.0875e-14 pd=9.9e-07 ps=1.12e-06
mXI5\<4\>\/Maccess_b ( N_BL_I_B\<0\>_XI5\<5\>\/Maccess_b_d \
 N_WL_INV\<4\>_XI5\<4\>\/Maccess_b_g N_XI5\<4\>\/SRAM_B_XI5\<4\>\/Mnmos_b_d \
 N_GND!_XI5\<5\>\/Maccess_b ) NMOS_VTL l=5e-08 w=1.25e-07 ad=4.625e-14 \
 as=7.0875e-14 pd=9.9e-07 ps=1.12e-06
mXI5\<3\>\/Maccess_b ( N_BL_I_B\<0\>_XI5\<3\>\/Maccess_b_d \
 N_WL_INV\<3\>_XI5\<3\>\/Maccess_b_g N_XI5\<3\>\/SRAM_B_XI5\<3\>\/Mnmos_b_d \
 N_GND!_XI5\<3\>\/Maccess_b ) NMOS_VTL l=5e-08 w=1.25e-07 ad=4.625e-14 \
 as=7.0875e-14 pd=9.9e-07 ps=1.12e-06
mXI5\<2\>\/Maccess_b ( N_BL_I_B\<0\>_XI5\<3\>\/Maccess_b_d \
 N_WL_INV\<2\>_XI5\<2\>\/Maccess_b_g N_XI5\<2\>\/SRAM_B_XI5\<2\>\/Mnmos_b_d \
 N_GND!_XI5\<3\>\/Maccess_b ) NMOS_VTL l=5e-08 w=1.25e-07 ad=4.625e-14 \
 as=7.0875e-14 pd=9.9e-07 ps=1.12e-06
mXI5\<1\>\/Maccess_b ( N_BL_I_B\<0\>_XI5\<1\>\/Maccess_b_d \
 N_WL_INV\<1\>_XI5\<1\>\/Maccess_b_g N_XI5\<1\>\/SRAM_B_XI5\<1\>\/Mnmos_b_d \
 N_GND!_XI5\<1\>\/Maccess_b ) NMOS_VTL l=5e-08 w=1.25e-07 ad=4.625e-14 \
 as=7.0875e-14 pd=9.9e-07 ps=1.12e-06
mXI5\<0\>\/Maccess_b ( N_BL_I_B\<0\>_XI5\<1\>\/Maccess_b_d \
 N_WL_INV\<0\>_XI5\<0\>\/Maccess_b_g N_XI5\<0\>\/SRAM_B_XI5\<0\>\/Mnmos_b_d \
 N_GND!_XI5\<1\>\/Maccess_b ) NMOS_VTL l=5e-08 w=1.25e-07 ad=4.625e-14 \
 as=7.0875e-14 pd=9.9e-07 ps=1.12e-06
mXI0\<0\>\/Maccess_b ( N_BL_I_B\<1\>_XI0\<0\>\/Maccess_b_d \
 N_WL_INV\<15\>_XI0\<0\>\/Maccess_b_g N_XI0\<0\>\/SRAM_B_XI0\<0\>\/Maccess_b_s \
 N_GND!_XI5\<15\>\/Maccess_b ) NMOS_VTL l=5e-08 w=1.25e-07 ad=2.75e-14 \
 as=7.0875e-14 pd=6.9e-07 ps=1.12e-06
mXtgate\<1\>\/MNMOS ( N_BL_I_B\<1\>_Xtgate\<1\>\/MNMOS_d \
 N_A\<0\>_Xtgate\<1\>\/MNMOS_g N_BL_B\<1\>_Xtgate\<1\>\/MNMOS_s \
 N_GND!_Xtgate\<0\>\/MM0_b ) NMOS_VTL l=5e-08 w=1.35e-07 ad=2.0925e-14 \
 as=2.0925e-14 pd=5.8e-07 ps=5.8e-07
mXI0\<0\>\/Mnmos_b ( N_XI0\<0\>\/SRAM_B_XI0\<0\>\/Maccess_b_s \
 N_XI0\<0\>\/SRAM_XI0\<0\>\/Mnmos_b_g N_GND!_XI0\<0\>\/Mnmos_b_s \
 N_GND!_XI5\<15\>\/Maccess_b ) NMOS_VTL l=5e-08 w=2.35e-07 ad=7.0875e-14 \
 as=7.3675e-14 pd=1.12e-06 ps=1.495e-06
mXI0\<0\>\/Mnmos ( N_XI0\<0\>\/SRAM_XI0\<0\>\/Mnmos_d \
 N_XI0\<0\>\/SRAM_B_XI0\<0\>\/Mnmos_g N_GND!_XI0\<0\>\/Mnmos_b_s \
 N_GND!_XI5\<15\>\/Maccess_b ) NMOS_VTL l=5e-08 w=2.35e-07 ad=6.79375e-14 \
 as=7.3675e-14 pd=1.095e-06 ps=1.495e-06
mXtgate\<1\>\/MM0 ( N_BL_I\<1\>_Xtgate\<1\>\/MM0_d N_A\<0\>_Xtgate\<1\>\/MM0_g \
 N_BL\<1\>_Xtgate\<1\>\/MM0_s N_GND!_Xtgate\<0\>\/MM0_b ) NMOS_VTL l=5e-08 \
 w=1.35e-07 ad=2.0925e-14 as=2.0925e-14 pd=5.8e-07 ps=5.8e-07
mXI0\<0\>\/Maccess ( N_BL_I\<1\>_XI0\<0\>\/Maccess_d \
 N_WL_INV\<15\>_XI0\<0\>\/Maccess_g N_XI0\<0\>\/SRAM_XI0\<0\>\/Mnmos_d \
 N_GND!_XI5\<15\>\/Maccess_b ) NMOS_VTL l=5e-08 w=1.25e-07 ad=2.78125e-14 \
 as=6.79375e-14 pd=6.95e-07 ps=1.095e-06
mXI0\<1\>\/Maccess ( N_BL_I\<2\>_XI0\<1\>\/Maccess_d \
 N_WL_INV\<15\>_XI0\<1\>\/Maccess_g N_XI0\<1\>\/SRAM_XI0\<1\>\/Maccess_s \
 N_GND!_XI5\<15\>\/Maccess_b ) NMOS_VTL l=5e-08 w=1.25e-07 ad=2.78125e-14 \
 as=6.79375e-14 pd=6.95e-07 ps=1.095e-06
mXtgate\<2\>\/MM0 ( N_BL_I\<2\>_Xtgate\<2\>\/MM0_d N_A\<0\>_Xtgate\<2\>\/MM0_g \
 N_BL\<2\>_Xtgate\<2\>\/MM0_s N_GND!_Xtgate\<0\>\/MM0_b ) NMOS_VTL l=5e-08 \
 w=1.35e-07 ad=2.0925e-14 as=2.0925e-14 pd=5.8e-07 ps=5.8e-07
mXI0\<1\>\/Mnmos ( N_XI0\<1\>\/SRAM_XI0\<1\>\/Maccess_s \
 N_XI0\<1\>\/SRAM_B_XI0\<1\>\/Mnmos_g N_GND!_XI0\<1\>\/Mnmos_s \
 N_GND!_XI5\<15\>\/Maccess_b ) NMOS_VTL l=5e-08 w=2.35e-07 ad=6.79375e-14 \
 as=7.3675e-14 pd=1.095e-06 ps=1.495e-06
mXI0\<1\>\/Mnmos_b ( N_XI0\<1\>\/SRAM_B_XI0\<1\>\/Mnmos_b_d \
 N_XI0\<1\>\/SRAM_XI0\<1\>\/Mnmos_b_g N_GND!_XI0\<1\>\/Mnmos_s \
 N_GND!_XI5\<15\>\/Maccess_b ) NMOS_VTL l=5e-08 w=2.35e-07 ad=7.0875e-14 \
 as=7.3675e-14 pd=1.12e-06 ps=1.495e-06
mXtgate\<2\>\/MNMOS ( N_BL_I_B\<2\>_Xtgate\<2\>\/MNMOS_d \
 N_A\<0\>_Xtgate\<2\>\/MNMOS_g N_BL_B\<2\>_Xtgate\<2\>\/MNMOS_s \
 N_GND!_Xtgate\<0\>\/MM0_b ) NMOS_VTL l=5e-08 w=1.35e-07 ad=2.0925e-14 \
 as=2.0925e-14 pd=5.8e-07 ps=5.8e-07
mXI0\<1\>\/Maccess_b ( N_BL_I_B\<2\>_XI0\<1\>\/Maccess_b_d \
 N_WL_INV\<15\>_XI0\<1\>\/Maccess_b_g N_XI0\<1\>\/SRAM_B_XI0\<1\>\/Mnmos_b_d \
 N_GND!_XI5\<15\>\/Maccess_b ) NMOS_VTL l=5e-08 w=1.25e-07 ad=2.75e-14 \
 as=7.0875e-14 pd=6.9e-07 ps=1.12e-06
mXI0\<2\>\/Maccess_b ( N_BL_I_B\<3\>_XI0\<2\>\/Maccess_b_d \
 N_WL_INV\<15\>_XI0\<2\>\/Maccess_b_g N_XI0\<2\>\/SRAM_B_XI0\<2\>\/Maccess_b_s \
 N_GND!_XI5\<15\>\/Maccess_b ) NMOS_VTL l=5e-08 w=1.25e-07 ad=2.75e-14 \
 as=7.0875e-14 pd=6.9e-07 ps=1.12e-06
mXtgate\<3\>\/MNMOS ( N_BL_I_B\<3\>_Xtgate\<3\>\/MNMOS_d \
 N_A\<0\>_Xtgate\<3\>\/MNMOS_g N_BL_B\<3\>_Xtgate\<3\>\/MNMOS_s \
 N_GND!_Xtgate\<0\>\/MM0_b ) NMOS_VTL l=5e-08 w=1.35e-07 ad=2.0925e-14 \
 as=2.0925e-14 pd=5.8e-07 ps=5.8e-07
mXI0\<2\>\/Mnmos_b ( N_XI0\<2\>\/SRAM_B_XI0\<2\>\/Maccess_b_s \
 N_XI0\<2\>\/SRAM_XI0\<2\>\/Mnmos_b_g N_GND!_XI0\<2\>\/Mnmos_b_s \
 N_GND!_XI5\<15\>\/Maccess_b ) NMOS_VTL l=5e-08 w=2.35e-07 ad=7.0875e-14 \
 as=7.3675e-14 pd=1.12e-06 ps=1.495e-06
mXI0\<2\>\/Mnmos ( N_XI0\<2\>\/SRAM_XI0\<2\>\/Mnmos_d \
 N_XI0\<2\>\/SRAM_B_XI0\<2\>\/Mnmos_g N_GND!_XI0\<2\>\/Mnmos_b_s \
 N_GND!_XI5\<15\>\/Maccess_b ) NMOS_VTL l=5e-08 w=2.35e-07 ad=6.79375e-14 \
 as=7.3675e-14 pd=1.095e-06 ps=1.495e-06
mXtgate\<3\>\/MM0 ( N_BL_I\<3\>_Xtgate\<3\>\/MM0_d N_A\<0\>_Xtgate\<3\>\/MM0_g \
 N_BL\<3\>_Xtgate\<3\>\/MM0_s N_GND!_Xtgate\<0\>\/MM0_b ) NMOS_VTL l=5e-08 \
 w=1.35e-07 ad=2.0925e-14 as=2.0925e-14 pd=5.8e-07 ps=5.8e-07
mXI0\<2\>\/Maccess ( N_BL_I\<3\>_XI0\<2\>\/Maccess_d \
 N_WL_INV\<15\>_XI0\<2\>\/Maccess_g N_XI0\<2\>\/SRAM_XI0\<2\>\/Mnmos_d \
 N_GND!_XI5\<15\>\/Maccess_b ) NMOS_VTL l=5e-08 w=1.25e-07 ad=2.78125e-14 \
 as=6.79375e-14 pd=6.95e-07 ps=1.095e-06
mXI0\<3\>\/Maccess ( N_BL_I\<4\>_XI0\<3\>\/Maccess_d \
 N_WL_INV\<15\>_XI0\<3\>\/Maccess_g N_XI0\<3\>\/SRAM_XI0\<3\>\/Maccess_s \
 N_GND!_XI5\<15\>\/Maccess_b ) NMOS_VTL l=5e-08 w=1.25e-07 ad=2.78125e-14 \
 as=6.79375e-14 pd=6.95e-07 ps=1.095e-06
mXtgate\<4\>\/MM0 ( N_BL_I\<4\>_Xtgate\<4\>\/MM0_d N_A\<0\>_Xtgate\<4\>\/MM0_g \
 N_BL\<4\>_Xtgate\<4\>\/MM0_s N_GND!_Xtgate\<0\>\/MM0_b ) NMOS_VTL l=5e-08 \
 w=1.35e-07 ad=2.0925e-14 as=2.0925e-14 pd=5.8e-07 ps=5.8e-07
mXI0\<3\>\/Mnmos ( N_XI0\<3\>\/SRAM_XI0\<3\>\/Maccess_s \
 N_XI0\<3\>\/SRAM_B_XI0\<3\>\/Mnmos_g N_GND!_XI0\<3\>\/Mnmos_s \
 N_GND!_XI5\<15\>\/Maccess_b ) NMOS_VTL l=5e-08 w=2.35e-07 ad=6.79375e-14 \
 as=7.3675e-14 pd=1.095e-06 ps=1.495e-06
mXI0\<3\>\/Mnmos_b ( N_XI0\<3\>\/SRAM_B_XI0\<3\>\/Mnmos_b_d \
 N_XI0\<3\>\/SRAM_XI0\<3\>\/Mnmos_b_g N_GND!_XI0\<3\>\/Mnmos_s \
 N_GND!_XI5\<15\>\/Maccess_b ) NMOS_VTL l=5e-08 w=2.35e-07 ad=7.0875e-14 \
 as=7.3675e-14 pd=1.12e-06 ps=1.495e-06
mXtgate\<4\>\/MNMOS ( N_BL_I_B\<4\>_Xtgate\<4\>\/MNMOS_d \
 N_A\<0\>_Xtgate\<4\>\/MNMOS_g N_BL_B\<4\>_Xtgate\<4\>\/MNMOS_s \
 N_GND!_Xtgate\<0\>\/MM0_b ) NMOS_VTL l=5e-08 w=1.35e-07 ad=2.0925e-14 \
 as=2.0925e-14 pd=5.8e-07 ps=5.8e-07
mXI0\<3\>\/Maccess_b ( N_BL_I_B\<4\>_XI0\<3\>\/Maccess_b_d \
 N_WL_INV\<15\>_XI0\<3\>\/Maccess_b_g N_XI0\<3\>\/SRAM_B_XI0\<3\>\/Mnmos_b_d \
 N_GND!_XI5\<15\>\/Maccess_b ) NMOS_VTL l=5e-08 w=1.25e-07 ad=2.75e-14 \
 as=7.0875e-14 pd=6.9e-07 ps=1.12e-06
mXI0\<4\>\/Maccess_b ( N_BL_I_B\<5\>_XI0\<4\>\/Maccess_b_d \
 N_WL_INV\<15\>_XI0\<4\>\/Maccess_b_g N_XI0\<4\>\/SRAM_B_XI0\<4\>\/Maccess_b_s \
 N_GND!_XI5\<15\>\/Maccess_b ) NMOS_VTL l=5e-08 w=1.25e-07 ad=2.75e-14 \
 as=7.0875e-14 pd=6.9e-07 ps=1.12e-06
mXtgate\<5\>\/MNMOS ( N_BL_I_B\<5\>_Xtgate\<5\>\/MNMOS_d \
 N_A\<0\>_Xtgate\<5\>\/MNMOS_g N_BL_B\<5\>_Xtgate\<5\>\/MNMOS_s \
 N_GND!_Xtgate\<0\>\/MM0_b ) NMOS_VTL l=5e-08 w=1.35e-07 ad=2.0925e-14 \
 as=2.0925e-14 pd=5.8e-07 ps=5.8e-07
mXI0\<4\>\/Mnmos_b ( N_XI0\<4\>\/SRAM_B_XI0\<4\>\/Maccess_b_s \
 N_XI0\<4\>\/SRAM_XI0\<4\>\/Mnmos_b_g N_GND!_XI0\<4\>\/Mnmos_b_s \
 N_GND!_XI5\<15\>\/Maccess_b ) NMOS_VTL l=5e-08 w=2.35e-07 ad=7.0875e-14 \
 as=7.3675e-14 pd=1.12e-06 ps=1.495e-06
mXI0\<4\>\/Mnmos ( N_XI0\<4\>\/SRAM_XI0\<4\>\/Mnmos_d \
 N_XI0\<4\>\/SRAM_B_XI0\<4\>\/Mnmos_g N_GND!_XI0\<4\>\/Mnmos_b_s \
 N_GND!_XI5\<15\>\/Maccess_b ) NMOS_VTL l=5e-08 w=2.35e-07 ad=6.79375e-14 \
 as=7.3675e-14 pd=1.095e-06 ps=1.495e-06
mXtgate\<5\>\/MM0 ( N_BL_I\<5\>_Xtgate\<5\>\/MM0_d N_A\<0\>_Xtgate\<5\>\/MM0_g \
 N_BL\<5\>_Xtgate\<5\>\/MM0_s N_GND!_Xtgate\<0\>\/MM0_b ) NMOS_VTL l=5e-08 \
 w=1.35e-07 ad=2.0925e-14 as=2.0925e-14 pd=5.8e-07 ps=5.8e-07
mXI0\<4\>\/Maccess ( N_BL_I\<5\>_XI0\<4\>\/Maccess_d \
 N_WL_INV\<15\>_XI0\<4\>\/Maccess_g N_XI0\<4\>\/SRAM_XI0\<4\>\/Mnmos_d \
 N_GND!_XI5\<15\>\/Maccess_b ) NMOS_VTL l=5e-08 w=1.25e-07 ad=2.78125e-14 \
 as=6.79375e-14 pd=6.95e-07 ps=1.095e-06
mXI0\<5\>\/Maccess ( N_BL_I\<6\>_XI0\<5\>\/Maccess_d \
 N_WL_INV\<15\>_XI0\<5\>\/Maccess_g N_XI0\<5\>\/SRAM_XI0\<5\>\/Maccess_s \
 N_GND!_XI5\<15\>\/Maccess_b ) NMOS_VTL l=5e-08 w=1.25e-07 ad=2.78125e-14 \
 as=6.79375e-14 pd=6.95e-07 ps=1.095e-06