// File: /nethome/nsoraba3/ECE_Cadence_Lab/Cadence/ECE6130Project/extracted.netlist.pex
// Created: Sun Nov 27 23:57:07 2016
// Program "Calibre xRC"
// Version "v2015.2_27.20"
// Nominal Temperature: 27C
// Circuit Temperature: 27C
// 
simulator lang=spectre
subckt PM_SYSTEMLAYOUT_2\%GND! ( 1 2 3 4 5 6 7 8 9 10 11 12 13 14 15 16 17 18 \
 19 20 21 22 23 24 25 26 27 28 29 30 31 32 33 34 35 36 37 38 39 40 41 42 43 44 \
 45 46 47 48 49 50 51 52 53 54 55 104 105 106 107 108 109 110 111 112 113 114 \
 115 116 117 118 119 120 169 172 174 177 179 182 184 187 189 192 194 197 199 \
 202 204 207 211 216 217 221 226 227 231 236 237 241 246 247 251 256 257 261 \
 266 267 271 276 277 281 286 287 289 291 293 295 297 299 301 303 306 308 310 \
 312 314 316 318 319 322 325 328 330 332 335 338 340 342 348 350 352 355 358 \
 360 362 368 370 372 375 378 380 382 385 388 390 392 395 398 400 402 405 408 \
 410 412 415 418 420 422 425 428 430 432 435 438 440 442 445 448 450 452 455 \
 458 460 462 465 468 470 472 475 478 480 483 490 497 504 511 518 525 535 537 \
 544 546 553 555 562 564 571 573 580 582 589 591 598 600 607 609 616 618 625 \
 627 634 636 643 645 652 654 661 663 670 672 677 690 693 696 699 702 705 708 \
 711 773 785 797 809 821 833 845 857 929 935 941 947 953 959 965 1019 1078 )
c1053 ( 1078 0 ) capacitor c=0.00401301f
c1054 ( 1019 0 ) capacitor c=0.00484082f
c1055 ( 965 0 ) capacitor c=0.00835066f
c1056 ( 959 0 ) capacitor c=0.00835066f
c1057 ( 953 0 ) capacitor c=0.00835066f
c1058 ( 947 0 ) capacitor c=0.00835066f
c1059 ( 941 0 ) capacitor c=0.00835066f
c1060 ( 935 0 ) capacitor c=0.00835066f
c1061 ( 929 0 ) capacitor c=0.00835066f
c1062 ( 857 0 ) capacitor c=0.00404624f
c1063 ( 845 0 ) capacitor c=0.00404624f
c1064 ( 833 0 ) capacitor c=0.00404624f
c1065 ( 821 0 ) capacitor c=0.00404624f
c1066 ( 809 0 ) capacitor c=0.00404624f
c1067 ( 797 0 ) capacitor c=0.00404624f
c1068 ( 785 0 ) capacitor c=0.00404624f
c1069 ( 773 0 ) capacitor c=0.00404624f
c1070 ( 712 0 ) capacitor c=0.0168452f
c1071 ( 711 0 ) capacitor c=0.00631931f
c1072 ( 708 0 ) capacitor c=0.00411003f
c1073 ( 705 0 ) capacitor c=0.00411003f
c1074 ( 702 0 ) capacitor c=0.00411003f
c1075 ( 699 0 ) capacitor c=0.00411003f
c1076 ( 696 0 ) capacitor c=0.00411003f
c1077 ( 693 0 ) capacitor c=0.00411003f
c1078 ( 690 0 ) capacitor c=0.00616722f
c1079 ( 689 0 ) capacitor c=3.63077e-19
c1080 ( 687 0 ) capacitor c=7.10966e-20
c1081 ( 686 0 ) capacitor c=7.10966e-20
c1082 ( 685 0 ) capacitor c=7.10966e-20
c1083 ( 684 0 ) capacitor c=7.10966e-20
c1084 ( 683 0 ) capacitor c=7.10966e-20
c1085 ( 682 0 ) capacitor c=7.10966e-20
c1086 ( 681 0 ) capacitor c=7.10966e-20
c1087 ( 680 0 ) capacitor c=7.10966e-20
c1088 ( 677 0 ) capacitor c=0.0795926f
c1089 ( 675 0 ) capacitor c=0.00437319f
c1090 ( 669 0 ) capacitor c=0.00437319f
c1091 ( 666 0 ) capacitor c=0.00437319f
c1092 ( 660 0 ) capacitor c=0.00437319f
c1093 ( 657 0 ) capacitor c=0.00437319f
c1094 ( 651 0 ) capacitor c=0.00437319f
c1095 ( 648 0 ) capacitor c=0.00437319f
c1096 ( 642 0 ) capacitor c=0.00437319f
c1097 ( 639 0 ) capacitor c=0.00437319f
c1098 ( 633 0 ) capacitor c=0.00437319f
c1099 ( 630 0 ) capacitor c=0.00437319f
c1100 ( 624 0 ) capacitor c=0.00437319f
c1101 ( 621 0 ) capacitor c=0.00437319f
c1102 ( 615 0 ) capacitor c=0.00437319f
c1103 ( 612 0 ) capacitor c=0.00437319f
c1104 ( 606 0 ) capacitor c=0.00437319f
c1105 ( 603 0 ) capacitor c=0.00437319f
c1106 ( 597 0 ) capacitor c=0.00437319f
c1107 ( 594 0 ) capacitor c=0.00437319f
c1108 ( 588 0 ) capacitor c=0.00437319f
c1109 ( 585 0 ) capacitor c=0.00437319f
c1110 ( 579 0 ) capacitor c=0.00437319f
c1111 ( 576 0 ) capacitor c=0.00437319f
c1112 ( 570 0 ) capacitor c=0.00437319f
c1113 ( 567 0 ) capacitor c=0.00437319f
c1114 ( 561 0 ) capacitor c=0.00437319f
c1115 ( 558 0 ) capacitor c=0.00437319f
c1116 ( 552 0 ) capacitor c=0.00437319f
c1117 ( 549 0 ) capacitor c=0.00437319f
c1118 ( 543 0 ) capacitor c=0.00437319f
c1119 ( 540 0 ) capacitor c=0.00437319f
c1120 ( 533 0 ) capacitor c=0.00437319f
c1121 ( 530 0 ) capacitor c=1.61245f
c1122 ( 525 0 ) capacitor c=0.0392106f
c1123 ( 518 0 ) capacitor c=0.0392106f
c1124 ( 511 0 ) capacitor c=0.0392106f
c1125 ( 504 0 ) capacitor c=0.0392106f
c1126 ( 497 0 ) capacitor c=0.0392106f
c1127 ( 490 0 ) capacitor c=0.0392106f
c1128 ( 483 0 ) capacitor c=0.0392106f
c1129 ( 478 0 ) capacitor c=0.00484082f
c1130 ( 475 0 ) capacitor c=0.00484082f
c1131 ( 468 0 ) capacitor c=0.00484082f
c1132 ( 465 0 ) capacitor c=0.00484082f
c1133 ( 458 0 ) capacitor c=0.00484082f
c1134 ( 455 0 ) capacitor c=0.00484082f
c1135 ( 448 0 ) capacitor c=0.00484082f
c1136 ( 445 0 ) capacitor c=0.00484082f
c1137 ( 438 0 ) capacitor c=0.00484082f
c1138 ( 435 0 ) capacitor c=0.00484082f
c1139 ( 428 0 ) capacitor c=0.00484082f
c1140 ( 425 0 ) capacitor c=0.00484082f
c1141 ( 418 0 ) capacitor c=0.00484082f
c1142 ( 415 0 ) capacitor c=0.00484082f
c1143 ( 408 0 ) capacitor c=0.00484082f
c1144 ( 405 0 ) capacitor c=0.00484082f
c1145 ( 398 0 ) capacitor c=0.00484082f
c1146 ( 395 0 ) capacitor c=0.00484082f
c1147 ( 388 0 ) capacitor c=0.00484082f
c1148 ( 385 0 ) capacitor c=0.00484082f
c1149 ( 378 0 ) capacitor c=0.00484082f
c1150 ( 375 0 ) capacitor c=0.00484082f
c1151 ( 368 0 ) capacitor c=0.00484082f
c1152 ( 358 0 ) capacitor c=0.00484082f
c1153 ( 355 0 ) capacitor c=0.00484082f
c1154 ( 348 0 ) capacitor c=0.00484082f
c1155 ( 338 0 ) capacitor c=0.00413511f
c1156 ( 335 0 ) capacitor c=0.00484082f
c1157 ( 328 0 ) capacitor c=0.00484082f
c1158 ( 325 0 ) capacitor c=0.00835066f
c1159 ( 319 0 ) capacitor c=0.953839f
c1160 ( 318 0 ) capacitor c=0.0682893f
c1161 ( 316 0 ) capacitor c=0.0682893f
c1162 ( 314 0 ) capacitor c=0.0682893f
c1163 ( 312 0 ) capacitor c=0.0682893f
c1164 ( 310 0 ) capacitor c=0.0682893f
c1165 ( 308 0 ) capacitor c=0.0682893f
c1166 ( 306 0 ) capacitor c=0.0682893f
c1167 ( 303 0 ) capacitor c=0.0715274f
c1168 ( 301 0 ) capacitor c=0.0684154f
c1169 ( 299 0 ) capacitor c=0.0684154f
c1170 ( 297 0 ) capacitor c=0.0684154f
c1171 ( 295 0 ) capacitor c=0.0684154f
c1172 ( 293 0 ) capacitor c=0.0684154f
c1173 ( 291 0 ) capacitor c=0.0684154f
c1174 ( 289 0 ) capacitor c=0.0715274f
c1175 ( 287 0 ) capacitor c=0.00404624f
c1176 ( 286 0 ) capacitor c=0.0247464f
c1177 ( 281 0 ) capacitor c=0.0247464f
c1178 ( 277 0 ) capacitor c=0.00404624f
c1179 ( 276 0 ) capacitor c=0.0247464f
c1180 ( 271 0 ) capacitor c=0.0247464f
c1181 ( 267 0 ) capacitor c=0.00404624f
c1182 ( 266 0 ) capacitor c=0.0247464f
c1183 ( 261 0 ) capacitor c=0.0247464f
c1184 ( 257 0 ) capacitor c=0.00404624f
c1185 ( 256 0 ) capacitor c=0.0247464f
c1186 ( 251 0 ) capacitor c=0.0247464f
c1187 ( 247 0 ) capacitor c=0.00404624f
c1188 ( 246 0 ) capacitor c=0.0247464f
c1189 ( 241 0 ) capacitor c=0.0247464f
c1190 ( 237 0 ) capacitor c=0.00404624f
c1191 ( 236 0 ) capacitor c=0.0247464f
c1192 ( 231 0 ) capacitor c=0.0247464f
c1193 ( 227 0 ) capacitor c=0.00404624f
c1194 ( 226 0 ) capacitor c=0.0247464f
c1195 ( 221 0 ) capacitor c=0.0247464f
c1196 ( 217 0 ) capacitor c=0.00404624f
c1197 ( 216 0 ) capacitor c=0.0247464f
c1198 ( 211 0 ) capacitor c=0.0247464f
c1199 ( 207 0 ) capacitor c=0.00963501f
c1200 ( 204 0 ) capacitor c=0.00890538f
c1201 ( 202 0 ) capacitor c=0.00963501f
c1202 ( 199 0 ) capacitor c=0.00890538f
c1203 ( 197 0 ) capacitor c=0.00963501f
c1204 ( 194 0 ) capacitor c=0.0096877f
c1205 ( 192 0 ) capacitor c=0.00963501f
c1206 ( 189 0 ) capacitor c=0.00989252f
c1207 ( 187 0 ) capacitor c=0.00963501f
c1208 ( 184 0 ) capacitor c=0.0111214f
c1209 ( 182 0 ) capacitor c=0.00963501f
c1210 ( 179 0 ) capacitor c=0.0112238f
c1211 ( 177 0 ) capacitor c=0.00963501f
c1212 ( 174 0 ) capacitor c=0.0112238f
c1213 ( 172 0 ) capacitor c=0.00963501f
c1214 ( 169 0 ) capacitor c=0.0122479f
c1215 ( 120 0 ) capacitor c=0.00737386f
c1216 ( 119 0 ) capacitor c=0.00737386f
c1217 ( 118 0 ) capacitor c=0.0073681f
c1218 ( 117 0 ) capacitor c=0.0073681f
c1219 ( 116 0 ) capacitor c=0.0073681f
c1220 ( 115 0 ) capacitor c=0.0073681f
c1221 ( 114 0 ) capacitor c=0.0073681f
c1222 ( 113 0 ) capacitor c=0.0073681f
c1223 ( 112 0 ) capacitor c=0.244137f
c1224 ( 111 0 ) capacitor c=0.00748721f
c1225 ( 110 0 ) capacitor c=0.00748721f
c1226 ( 109 0 ) capacitor c=0.00748721f
c1227 ( 108 0 ) capacitor c=0.00748721f
c1228 ( 107 0 ) capacitor c=0.00748721f
c1229 ( 106 0 ) capacitor c=0.00748721f
c1230 ( 105 0 ) capacitor c=0.00748721f
c1231 ( 104 0 ) capacitor c=0.00748721f
c1232 ( 55 0 ) capacitor c=0.00804321f
c1233 ( 54 0 ) capacitor c=0.00804321f
c1234 ( 53 0 ) capacitor c=0.00804321f
c1235 ( 52 0 ) capacitor c=0.00804321f
c1236 ( 51 0 ) capacitor c=0.00804321f
c1237 ( 50 0 ) capacitor c=0.00804321f
c1238 ( 49 0 ) capacitor c=0.00804321f
c1239 ( 48 0 ) capacitor c=0.00804321f
c1240 ( 47 0 ) capacitor c=0.00804321f
c1241 ( 46 0 ) capacitor c=0.00804321f
c1242 ( 45 0 ) capacitor c=0.00804321f
c1243 ( 44 0 ) capacitor c=0.00804321f
c1244 ( 43 0 ) capacitor c=0.00804321f
c1245 ( 42 0 ) capacitor c=0.00804321f
c1246 ( 41 0 ) capacitor c=0.00804321f
c1247 ( 40 0 ) capacitor c=0.00804321f
c1248 ( 39 0 ) capacitor c=0.00804321f
c1249 ( 38 0 ) capacitor c=0.00804321f
c1250 ( 37 0 ) capacitor c=0.00804321f
c1251 ( 36 0 ) capacitor c=0.00804321f
c1252 ( 35 0 ) capacitor c=0.00804321f
c1253 ( 34 0 ) capacitor c=0.00804321f
c1254 ( 33 0 ) capacitor c=0.00804321f
c1255 ( 32 0 ) capacitor c=0.00854562f
c1256 ( 31 0 ) capacitor c=0.00804321f
c1257 ( 30 0 ) capacitor c=0.00804321f
c1258 ( 29 0 ) capacitor c=0.00804321f
c1259 ( 28 0 ) capacitor c=0.00804321f
c1260 ( 27 0 ) capacitor c=0.00760349f
c1261 ( 26 0 ) capacitor c=0.00804321f
c1262 ( 25 0 ) capacitor c=0.00804321f
c1263 ( 24 0 ) capacitor c=0.00819984f
c1264 ( 23 0 ) capacitor c=0.00819984f
c1265 ( 22 0 ) capacitor c=0.00819984f
c1266 ( 21 0 ) capacitor c=0.00819984f
c1267 ( 20 0 ) capacitor c=0.00819984f
c1268 ( 19 0 ) capacitor c=0.00819984f
c1269 ( 18 0 ) capacitor c=0.00819984f
c1270 ( 17 0 ) capacitor c=0.00819984f
c1271 ( 16 0 ) capacitor c=0.00683714f
c1272 ( 15 0 ) capacitor c=0.0068115f
c1273 ( 14 0 ) capacitor c=0.0068115f
c1274 ( 13 0 ) capacitor c=0.0068115f
c1275 ( 12 0 ) capacitor c=0.0068115f
c1276 ( 11 0 ) capacitor c=0.0068115f
c1277 ( 10 0 ) capacitor c=0.0068115f
c1278 ( 9 0 ) capacitor c=0.0068115f
c1279 ( 8 0 ) capacitor c=0.0068115f
c1280 ( 7 0 ) capacitor c=0.0068115f
c1281 ( 6 0 ) capacitor c=0.0068115f
c1282 ( 5 0 ) capacitor c=0.0068115f
c1283 ( 4 0 ) capacitor c=0.0068115f
c1284 ( 3 0 ) capacitor c=0.0068115f
c1285 ( 2 0 ) capacitor c=0.0068115f
c1286 ( 1 0 ) capacitor c=0.00683714f
r1287 (  710 711 ) resistor r=102.4
r1288 (  707 708 ) resistor r=102.4
r1289 (  704 705 ) resistor r=102.4
r1290 (  701 702 ) resistor r=102.4
r1291 (  698 699 ) resistor r=102.4
r1292 (  695 696 ) resistor r=102.4
r1293 (  692 693 ) resistor r=102.4
r1294 (  689 690 ) resistor r=102.4
r1295 (  676 712 ) resistor r=0.0172505
r1296 (  676 677 ) resistor r=3.22087
r1297 (  674 675 ) resistor r=102.4
r1298 (  672 674 ) resistor r=0.208333
r1299 (  670 672 ) resistor r=1.91204
r1300 (  669 670 ) resistor r=102.4
r1301 (  665 670 ) resistor r=2.14815
r1302 (  665 666 ) resistor r=102.4
r1303 (  663 665 ) resistor r=0.208333
r1304 (  661 663 ) resistor r=1.91204
r1305 (  660 661 ) resistor r=102.4
r1306 (  656 661 ) resistor r=2.14815
r1307 (  656 657 ) resistor r=102.4
r1308 (  654 656 ) resistor r=0.208333
r1309 (  652 654 ) resistor r=1.91204
r1310 (  651 652 ) resistor r=102.4
r1311 (  647 652 ) resistor r=2.14815
r1312 (  647 648 ) resistor r=102.4
r1313 (  645 647 ) resistor r=0.208333
r1314 (  643 645 ) resistor r=1.91204
r1315 (  642 643 ) resistor r=102.4
r1316 (  638 643 ) resistor r=2.14815
r1317 (  638 639 ) resistor r=102.4
r1318 (  636 638 ) resistor r=0.208333
r1319 (  634 636 ) resistor r=1.91204
r1320 (  633 634 ) resistor r=102.4
r1321 (  629 634 ) resistor r=2.14815
r1322 (  629 630 ) resistor r=102.4
r1323 (  627 629 ) resistor r=0.208333
r1324 (  625 627 ) resistor r=1.91204
r1325 (  624 625 ) resistor r=102.4
r1326 (  620 625 ) resistor r=2.14815
r1327 (  620 621 ) resistor r=102.4
r1328 (  618 620 ) resistor r=0.208333
r1329 (  616 618 ) resistor r=1.91204
r1330 (  615 616 ) resistor r=102.4
r1331 (  611 616 ) resistor r=2.14815
r1332 (  611 612 ) resistor r=102.4
r1333 (  609 611 ) resistor r=0.208333
r1334 (  607 609 ) resistor r=1.91204
r1335 (  606 607 ) resistor r=102.4
r1336 (  602 607 ) resistor r=2.14815
r1337 (  602 603 ) resistor r=102.4
r1338 (  600 602 ) resistor r=0.208333
r1339 (  598 600 ) resistor r=1.91204
r1340 (  597 598 ) resistor r=102.4
r1341 (  593 598 ) resistor r=2.14815
r1342 (  593 594 ) resistor r=102.4
r1343 (  591 593 ) resistor r=0.208333
r1344 (  589 591 ) resistor r=1.91204
r1345 (  588 589 ) resistor r=102.4
r1346 (  584 589 ) resistor r=2.14815
r1347 (  584 585 ) resistor r=102.4
r1348 (  582 584 ) resistor r=0.208333
r1349 (  580 582 ) resistor r=1.91204
r1350 (  579 580 ) resistor r=102.4
r1351 (  575 580 ) resistor r=2.14815
r1352 (  575 576 ) resistor r=102.4
r1353 (  573 575 ) resistor r=0.208333
r1354 (  571 573 ) resistor r=1.91204
r1355 (  570 571 ) resistor r=102.4
r1356 (  566 571 ) resistor r=2.14815
r1357 (  566 567 ) resistor r=102.4
r1358 (  564 566 ) resistor r=0.208333
r1359 (  562 564 ) resistor r=1.91204
r1360 (  561 562 ) resistor r=102.4
r1361 (  557 562 ) resistor r=2.14815
r1362 (  557 558 ) resistor r=102.4
r1363 (  555 557 ) resistor r=0.208333
r1364 (  553 555 ) resistor r=1.91204
r1365 (  552 553 ) resistor r=102.4
r1366 (  548 553 ) resistor r=2.14815
r1367 (  548 549 ) resistor r=102.4
r1368 (  546 548 ) resistor r=0.208333
r1369 (  544 546 ) resistor r=1.91204
r1370 (  543 544 ) resistor r=102.4
r1371 (  539 544 ) resistor r=2.14815
r1372 (  539 540 ) resistor r=102.4
r1373 (  537 539 ) resistor r=0.208333
r1374 (  535 537 ) resistor r=1.91204
r1375 (  533 535 ) resistor r=102.4
r1376 (  530 712 ) resistor r=0.174285
r1377 (  530 674 ) resistor r=0.62963
r1378 (  528 965 ) resistor r=70.2053
r1379 (  525 528 ) resistor r=0.45
r1380 (  523 710 ) resistor r=0.134225
r1381 (  523 525 ) resistor r=1.17763
r1382 (  521 959 ) resistor r=70.2053
r1383 (  518 521 ) resistor r=0.45
r1384 (  516 707 ) resistor r=0.167105
r1385 (  516 518 ) resistor r=1.17763
r1386 (  514 953 ) resistor r=70.2053
r1387 (  511 514 ) resistor r=0.45
r1388 (  509 704 ) resistor r=0.167105
r1389 (  509 511 ) resistor r=1.17763
r1390 (  507 947 ) resistor r=70.2053
r1391 (  504 507 ) resistor r=0.45
r1392 (  502 701 ) resistor r=0.167105
r1393 (  502 504 ) resistor r=1.17763
r1394 (  500 941 ) resistor r=70.2053
r1395 (  497 500 ) resistor r=0.45
r1396 (  495 698 ) resistor r=0.167105
r1397 (  495 497 ) resistor r=1.17763
r1398 (  493 935 ) resistor r=70.2053
r1399 (  490 493 ) resistor r=0.45
r1400 (  488 695 ) resistor r=0.167105
r1401 (  488 490 ) resistor r=1.17763
r1402 (  486 929 ) resistor r=70.2053
r1403 (  483 486 ) resistor r=0.45
r1404 (  481 692 ) resistor r=0.167105
r1405 (  481 483 ) resistor r=1.17763
r1406 (  477 480 ) resistor r=0.438158
r1407 (  477 478 ) resistor r=69.9216
r1408 (  474 477 ) resistor r=3.07237
r1409 (  474 475 ) resistor r=69.9216
r1410 (  472 474 ) resistor r=0.436842
r1411 (  470 472 ) resistor r=2.11842
r1412 (  467 470 ) resistor r=0.438158
r1413 (  467 468 ) resistor r=69.9216
r1414 (  464 467 ) resistor r=3.07237
r1415 (  464 465 ) resistor r=69.9216
r1416 (  462 464 ) resistor r=0.436842
r1417 (  460 462 ) resistor r=2.11842
r1418 (  457 460 ) resistor r=0.438158
r1419 (  457 458 ) resistor r=69.9216
r1420 (  454 457 ) resistor r=3.07237
r1421 (  454 455 ) resistor r=69.9216
r1422 (  452 454 ) resistor r=0.436842
r1423 (  450 452 ) resistor r=2.11842
r1424 (  447 450 ) resistor r=0.438158
r1425 (  447 448 ) resistor r=69.9216
r1426 (  444 447 ) resistor r=3.07237
r1427 (  444 445 ) resistor r=69.9216
r1428 (  442 444 ) resistor r=0.436842
r1429 (  440 442 ) resistor r=2.11842
r1430 (  437 440 ) resistor r=0.438158
r1431 (  437 438 ) resistor r=69.9216
r1432 (  434 437 ) resistor r=3.07237
r1433 (  434 435 ) resistor r=69.9216
r1434 (  432 434 ) resistor r=0.436842
r1435 (  430 432 ) resistor r=2.11842
r1436 (  427 430 ) resistor r=0.438158
r1437 (  427 428 ) resistor r=69.9216
r1438 (  424 427 ) resistor r=3.07237
r1439 (  424 425 ) resistor r=69.9216
r1440 (  422 424 ) resistor r=0.436842
r1441 (  420 422 ) resistor r=2.11842
r1442 (  417 420 ) resistor r=0.438158
r1443 (  417 418 ) resistor r=69.9216
r1444 (  414 417 ) resistor r=3.07237
r1445 (  414 415 ) resistor r=69.9216
r1446 (  412 414 ) resistor r=0.436842
r1447 (  410 412 ) resistor r=2.11842
r1448 (  407 410 ) resistor r=0.438158
r1449 (  407 408 ) resistor r=69.9216
r1450 (  404 407 ) resistor r=3.07237
r1451 (  404 405 ) resistor r=69.9216
r1452 (  402 404 ) resistor r=0.436842
r1453 (  400 402 ) resistor r=2.11842
r1454 (  397 400 ) resistor r=0.438158
r1455 (  397 398 ) resistor r=69.9216
r1456 (  394 397 ) resistor r=3.07237
r1457 (  394 395 ) resistor r=69.9216
r1458 (  392 394 ) resistor r=0.436842
r1459 (  390 392 ) resistor r=2.11842
r1460 (  387 390 ) resistor r=0.438158
r1461 (  387 388 ) resistor r=69.9216
r1462 (  384 387 ) resistor r=3.07237
r1463 (  384 385 ) resistor r=69.9216
r1464 (  382 384 ) resistor r=0.436842
r1465 (  380 382 ) resistor r=2.11842
r1466 (  377 380 ) resistor r=0.438158
r1467 (  377 378 ) resistor r=69.9216
r1468 (  374 377 ) resistor r=3.07237
r1469 (  374 375 ) resistor r=69.9216
r1470 (  372 374 ) resistor r=0.436842
r1471 (  370 372 ) resistor r=2.11842
r1472 (  367 370 ) resistor r=0.438158
r1473 (  367 368 ) resistor r=69.9216
r1474 (  364 367 ) resistor r=3.01974
r1475 (  364 1078 ) resistor r=56.2784
r1476 (  362 364 ) resistor r=0.489474
r1477 (  360 362 ) resistor r=2.11842
r1478 (  357 360 ) resistor r=0.438158
r1479 (  357 358 ) resistor r=69.9216
r1480 (  354 357 ) resistor r=3.07237
r1481 (  354 355 ) resistor r=69.9216
r1482 (  352 354 ) resistor r=0.436842
r1483 (  350 352 ) resistor r=2.11842
r1484 (  347 350 ) resistor r=0.438158
r1485 (  347 348 ) resistor r=69.9216
r1486 (  344 347 ) resistor r=3.05921
r1487 (  344 1019 ) resistor r=79.566
r1488 (  342 344 ) resistor r=0.45
r1489 (  340 342 ) resistor r=2.11842
r1490 (  337 340 ) resistor r=0.451316
r1491 (  337 338 ) resistor r=79.566
r1492 (  334 337 ) resistor r=3.07237
r1493 (  334 335 ) resistor r=79.566
r1494 (  332 334 ) resistor r=0.423684
r1495 (  330 332 ) resistor r=2.11842
r1496 (  327 330 ) resistor r=0.451316
r1497 (  327 328 ) resistor r=79.566
r1498 (  324 327 ) resistor r=3.04605
r1499 (  324 325 ) resistor r=79.566
r1500 (  322 324 ) resistor r=0.45
r1501 (  320 689 ) resistor r=0.134225
r1502 (  320 322 ) resistor r=1.17763
r1503 (  319 677 ) resistor r=0.182326
r1504 (  319 480 ) resistor r=0.427632
r1505 (  318 710 ) resistor r=0.00630711
r1506 (  317 707 ) resistor r=0.0931373
r1507 (  317 318 ) resistor r=3.98039
r1508 (  316 707 ) resistor r=0.0931373
r1509 (  315 704 ) resistor r=0.0931373
r1510 (  315 316 ) resistor r=3.98039
r1511 (  314 704 ) resistor r=0.0931373
r1512 (  313 701 ) resistor r=0.0931373
r1513 (  313 314 ) resistor r=3.98039
r1514 (  312 701 ) resistor r=0.0931373
r1515 (  311 698 ) resistor r=0.0931373
r1516 (  311 312 ) resistor r=3.98039
r1517 (  310 698 ) resistor r=0.0931373
r1518 (  309 695 ) resistor r=0.0931373
r1519 (  309 310 ) resistor r=3.98039
r1520 (  308 695 ) resistor r=0.0931373
r1521 (  307 692 ) resistor r=0.0931373
r1522 (  307 308 ) resistor r=3.98039
r1523 (  306 692 ) resistor r=0.0931373
r1524 (  305 689 ) resistor r=0.00630711
r1525 (  305 306 ) resistor r=3.98039
r1526 (  304 687 ) resistor r=0.134211
r1527 (  303 710 ) resistor r=0.134225
r1528 (  303 304 ) resistor r=4.51316
r1529 (  302 686 ) resistor r=0.134211
r1530 (  301 707 ) resistor r=0.167105
r1531 (  301 302 ) resistor r=4.51316
r1532 (  300 685 ) resistor r=0.134211
r1533 (  299 704 ) resistor r=0.167105
r1534 (  299 300 ) resistor r=4.51316
r1535 (  298 684 ) resistor r=0.134211
r1536 (  297 701 ) resistor r=0.167105
r1537 (  297 298 ) resistor r=4.51316
r1538 (  296 683 ) resistor r=0.134211
r1539 (  295 698 ) resistor r=0.167105
r1540 (  295 296 ) resistor r=4.51316
r1541 (  294 682 ) resistor r=0.134211
r1542 (  293 695 ) resistor r=0.167105
r1543 (  293 294 ) resistor r=4.51316
r1544 (  292 681 ) resistor r=0.134211
r1545 (  291 692 ) resistor r=0.167105
r1546 (  291 292 ) resistor r=4.51316
r1547 (  290 680 ) resistor r=0.134211
r1548 (  289 689 ) resistor r=0.134225
r1549 (  289 290 ) resistor r=4.51316
r1550 (  286 287 ) resistor r=79.566
r1551 (  284 687 ) resistor r=0.115854
r1552 (  284 286 ) resistor r=1.57927
r1553 (  281 857 ) resistor r=79.566
r1554 (  279 687 ) resistor r=0.115854
r1555 (  279 281 ) resistor r=1.57927
r1556 (  276 277 ) resistor r=79.566
r1557 (  274 686 ) resistor r=0.115854
r1558 (  274 276 ) resistor r=1.57927
r1559 (  271 845 ) resistor r=79.566
r1560 (  269 686 ) resistor r=0.115854
r1561 (  269 271 ) resistor r=1.57927
r1562 (  266 267 ) resistor r=79.566
r1563 (  264 685 ) resistor r=0.115854
r1564 (  264 266 ) resistor r=1.57927
r1565 (  261 833 ) resistor r=79.566
r1566 (  259 685 ) resistor r=0.115854
r1567 (  259 261 ) resistor r=1.57927
r1568 (  256 257 ) resistor r=79.566
r1569 (  254 684 ) resistor r=0.115854
r1570 (  254 256 ) resistor r=1.57927
r1571 (  251 821 ) resistor r=79.566
r1572 (  249 684 ) resistor r=0.115854
r1573 (  249 251 ) resistor r=1.57927
r1574 (  246 247 ) resistor r=79.566
r1575 (  244 683 ) resistor r=0.115854
r1576 (  244 246 ) resistor r=1.57927
r1577 (  241 809 ) resistor r=79.566
r1578 (  239 683 ) resistor r=0.115854
r1579 (  239 241 ) resistor r=1.57927
r1580 (  236 237 ) resistor r=79.566
r1581 (  234 682 ) resistor r=0.115854
r1582 (  234 236 ) resistor r=1.57927
r1583 (  231 797 ) resistor r=79.566
r1584 (  229 682 ) resistor r=0.115854
r1585 (  229 231 ) resistor r=1.57927
r1586 (  226 227 ) resistor r=79.566
r1587 (  224 681 ) resistor r=0.115854
r1588 (  224 226 ) resistor r=1.57927
r1589 (  221 785 ) resistor r=79.566
r1590 (  219 681 ) resistor r=0.115854
r1591 (  219 221 ) resistor r=1.57927
r1592 (  216 217 ) resistor r=79.566
r1593 (  214 680 ) resistor r=0.115854
r1594 (  214 216 ) resistor r=1.57927
r1595 (  211 773 ) resistor r=79.566
r1596 (  209 680 ) resistor r=0.115854
r1597 (  209 211 ) resistor r=1.57927
r1598 (  206 207 ) resistor r=102.4
r1599 (  204 687 ) resistor r=0.134211
r1600 (  204 206 ) resistor r=0.559211
r1601 (  201 202 ) resistor r=102.4
r1602 (  199 686 ) resistor r=0.134211
r1603 (  199 201 ) resistor r=0.559211
r1604 (  196 197 ) resistor r=102.4
r1605 (  194 685 ) resistor r=0.134211
r1606 (  194 196 ) resistor r=0.559211
r1607 (  191 192 ) resistor r=102.4
r1608 (  189 684 ) resistor r=0.134211
r1609 (  189 191 ) resistor r=0.559211
r1610 (  186 187 ) resistor r=102.4
r1611 (  184 681 ) resistor r=0.134211
r1612 (  184 186 ) resistor r=0.559211
r1613 (  181 182 ) resistor r=102.4
r1614 (  179 683 ) resistor r=0.134211
r1615 (  179 181 ) resistor r=0.559211
r1616 (  176 177 ) resistor r=102.4
r1617 (  174 682 ) resistor r=0.134211
r1618 (  174 176 ) resistor r=0.559211
r1619 (  171 172 ) resistor r=102.4
r1620 (  169 680 ) resistor r=0.134211
r1621 (  169 171 ) resistor r=0.559211
r1622 (  120 690 ) resistor r=102.4
r1623 (  119 711 ) resistor r=102.4
r1624 (  118 708 ) resistor r=102.4
r1625 (  117 705 ) resistor r=102.4
r1626 (  116 702 ) resistor r=102.4
r1627 (  115 699 ) resistor r=102.4
r1628 (  114 696 ) resistor r=102.4
r1629 (  113 693 ) resistor r=102.4
r1630 (  112 675 ) resistor r=102.4
r1631 (  112 669 ) resistor r=102.4
r1632 (  112 666 ) resistor r=102.4
r1633 (  112 660 ) resistor r=102.4
r1634 (  112 657 ) resistor r=102.4
r1635 (  112 651 ) resistor r=102.4
r1636 (  112 648 ) resistor r=102.4
r1637 (  112 642 ) resistor r=102.4
r1638 (  112 639 ) resistor r=102.4
r1639 (  112 633 ) resistor r=102.4
r1640 (  112 630 ) resistor r=102.4
r1641 (  112 624 ) resistor r=102.4
r1642 (  112 621 ) resistor r=102.4
r1643 (  112 615 ) resistor r=102.4
r1644 (  112 612 ) resistor r=102.4
r1645 (  112 606 ) resistor r=102.4
r1646 (  112 603 ) resistor r=102.4
r1647 (  112 597 ) resistor r=102.4
r1648 (  112 594 ) resistor r=102.4
r1649 (  112 588 ) resistor r=102.4
r1650 (  112 585 ) resistor r=102.4
r1651 (  112 579 ) resistor r=102.4
r1652 (  112 576 ) resistor r=102.4
r1653 (  112 570 ) resistor r=102.4
r1654 (  112 567 ) resistor r=102.4
r1655 (  112 561 ) resistor r=102.4
r1656 (  112 558 ) resistor r=102.4
r1657 (  112 552 ) resistor r=102.4
r1658 (  112 549 ) resistor r=102.4
r1659 (  112 543 ) resistor r=102.4
r1660 (  112 540 ) resistor r=102.4
r1661 (  112 533 ) resistor r=102.4
r1662 (  111 207 ) resistor r=102.4
r1663 (  110 202 ) resistor r=102.4
r1664 (  109 197 ) resistor r=102.4
r1665 (  108 192 ) resistor r=102.4
r1666 (  107 182 ) resistor r=102.4
r1667 (  106 177 ) resistor r=102.4
r1668 (  105 187 ) resistor r=102.4
r1669 (  104 172 ) resistor r=102.4
r1670 (  55 478 ) resistor r=79.566
r1671 (  54 475 ) resistor r=79.566
r1672 (  53 468 ) resistor r=79.566
r1673 (  52 465 ) resistor r=79.566
r1674 (  51 458 ) resistor r=79.566
r1675 (  50 455 ) resistor r=79.566
r1676 (  49 448 ) resistor r=79.566
r1677 (  48 445 ) resistor r=79.566
r1678 (  47 438 ) resistor r=79.566
r1679 (  46 435 ) resistor r=79.566
r1680 (  45 428 ) resistor r=79.566
r1681 (  44 425 ) resistor r=79.566
r1682 (  43 418 ) resistor r=79.566
r1683 (  42 415 ) resistor r=79.566
r1684 (  41 408 ) resistor r=79.566
r1685 (  40 405 ) resistor r=79.566
r1686 (  39 398 ) resistor r=79.566
r1687 (  38 395 ) resistor r=79.566
r1688 (  37 388 ) resistor r=79.566
r1689 (  36 385 ) resistor r=79.566
r1690 (  35 378 ) resistor r=79.566
r1691 (  34 375 ) resistor r=79.566
r1692 (  33 368 ) resistor r=79.566
r1693 (  32 1078 ) resistor r=56.2784
r1694 (  31 358 ) resistor r=79.566
r1695 (  30 355 ) resistor r=79.566
r1696 (  29 348 ) resistor r=79.566
r1697 (  28 1019 ) resistor r=79.566
r1698 (  27 338 ) resistor r=79.566
r1699 (  26 335 ) resistor r=79.566
r1700 (  25 328 ) resistor r=79.566
r1701 (  24 965 ) resistor r=70.2053
r1702 (  23 959 ) resistor r=70.2053
r1703 (  22 953 ) resistor r=70.2053
r1704 (  21 947 ) resistor r=70.2053
r1705 (  20 941 ) resistor r=70.2053
r1706 (  19 935 ) resistor r=70.2053
r1707 (  18 929 ) resistor r=70.2053
r1708 (  17 325 ) resistor r=70.2053
r1709 (  16 287 ) resistor r=72.0316
r1710 (  15 857 ) resistor r=72.0316
r1711 (  14 277 ) resistor r=72.0316
r1712 (  13 845 ) resistor r=72.0316
r1713 (  12 267 ) resistor r=72.0316
r1714 (  11 833 ) resistor r=72.0316
r1715 (  10 257 ) resistor r=72.0316
r1716 (  9 821 ) resistor r=72.0316
r1717 (  8 247 ) resistor r=72.0316
r1718 (  7 809 ) resistor r=72.0316
r1719 (  6 237 ) resistor r=72.0316
r1720 (  5 797 ) resistor r=72.0316
r1721 (  4 227 ) resistor r=72.0316
r1722 (  3 785 ) resistor r=72.0316
r1723 (  2 217 ) resistor r=72.0316
r1724 (  1 773 ) resistor r=72.0316
ends PM_SYSTEMLAYOUT_2\%GND!

subckt PM_SYSTEMLAYOUT_2\%BL_I\<0\> ( 1 2 3 4 5 6 7 8 9 10 11 12 21 47 52 54 \
 57 59 62 64 67 69 72 74 77 79 82 84 )
c294 ( 84 0 ) capacitor c=0.0696049f
c295 ( 82 0 ) capacitor c=0.0422018f
c296 ( 79 0 ) capacitor c=0.0696049f
c297 ( 77 0 ) capacitor c=0.00245781f
c298 ( 74 0 ) capacitor c=0.0696049f
c299 ( 72 0 ) capacitor c=0.00245781f
c300 ( 69 0 ) capacitor c=0.0696049f
c301 ( 67 0 ) capacitor c=0.00245781f
c302 ( 64 0 ) capacitor c=0.0696049f
c303 ( 62 0 ) capacitor c=0.00245781f
c304 ( 59 0 ) capacitor c=0.0696049f
c305 ( 57 0 ) capacitor c=0.00245781f
c306 ( 54 0 ) capacitor c=0.0696049f
c307 ( 52 0 ) capacitor c=0.00245781f
c308 ( 47 0 ) capacitor c=0.00243004f
c309 ( 21 0 ) capacitor c=0.0584573f
c310 ( 12 0 ) capacitor c=0.0107719f
c311 ( 11 0 ) capacitor c=0.0106295f
c312 ( 10 0 ) capacitor c=0.0075098f
c313 ( 9 0 ) capacitor c=0.00821031f
c314 ( 8 0 ) capacitor c=0.00821031f
c315 ( 7 0 ) capacitor c=0.00821031f
c316 ( 6 0 ) capacitor c=0.00821031f
c317 ( 5 0 ) capacitor c=0.00821031f
c318 ( 4 0 ) capacitor c=0.00821031f
c319 ( 3 0 ) capacitor c=0.00821031f
c320 ( 2 0 ) capacitor c=0.00821031f
c321 ( 1 0 ) capacitor c=0.00755063f
r322 (  82 84 ) resistor r=0.136921
r323 (  80 84 ) resistor r=3.64815
r324 (  77 80 ) resistor r=0.136921
r325 (  77 79 ) resistor r=0.136921
r326 (  75 79 ) resistor r=3.64815
r327 (  72 75 ) resistor r=0.136921
r328 (  72 74 ) resistor r=0.136921
r329 (  70 74 ) resistor r=3.64815
r330 (  67 70 ) resistor r=0.136921
r331 (  67 69 ) resistor r=0.136921
r332 (  65 69 ) resistor r=3.64815
r333 (  62 65 ) resistor r=0.136921
r334 (  62 64 ) resistor r=0.136921
r335 (  60 64 ) resistor r=3.64815
r336 (  57 60 ) resistor r=0.136921
r337 (  57 59 ) resistor r=0.136921
r338 (  55 59 ) resistor r=3.64815
r339 (  52 55 ) resistor r=0.136921
r340 (  52 54 ) resistor r=0.136921
r341 (  50 54 ) resistor r=3.64815
r342 (  47 50 ) resistor r=0.136921
r343 (  47 49 ) resistor r=0.136921
r344 (  28 49 ) resistor r=2.93796
r345 (  25 28 ) resistor r=0.381481
r346 (  21 25 ) resistor r=1.36111
r347 (  11 28 ) resistor r=67.6661
r348 (  11 12 ) resistor r=0.513704
r349 (  10 25 ) resistor r=102.4
r350 (  9 82 ) resistor r=70.2053
r351 (  8 77 ) resistor r=70.2053
r352 (  7 72 ) resistor r=70.2053
r353 (  6 67 ) resistor r=70.2053
r354 (  5 62 ) resistor r=70.2053
r355 (  4 57 ) resistor r=70.2053
r356 (  3 52 ) resistor r=70.2053
r357 (  2 47 ) resistor r=70.2053
r358 (  1 21 ) resistor r=102.4
ends PM_SYSTEMLAYOUT_2\%BL_I\<0\>

subckt PM_SYSTEMLAYOUT_2\%BL\<0\> ( 1 2 5 7 8 11 )
c30 ( 11 0 ) capacitor c=0.00994002f
c31 ( 8 0 ) capacitor c=0.00264425f
c32 ( 7 0 ) capacitor c=0.00831471f
c33 ( 5 0 ) capacitor c=0.0153812f
c34 ( 2 0 ) capacitor c=0.00740095f
c35 ( 1 0 ) capacitor c=0.00748126f
r36 (  11 14 ) resistor r=1.36111
r37 (  9 11 ) resistor r=0.287037
r38 (  7 9 ) resistor r=0.158772
r39 (  7 8 ) resistor r=0.321429
r40 (  3 8 ) resistor r=0.158772
r41 (  3 5 ) resistor r=0.291667
r42 (  2 14 ) resistor r=102.4