// File: /nethome/nsoraba3/ECE_Cadence_Lab/Cadence/ECE6130Project/extracted.netlist.SYSTEMLAYOUT_2.pxi
// Created: Sun Nov 27 23:57:07 2016
// 
simulator lang=spectre
x_PM_SYSTEMLAYOUT_2\%GND! ( N_GND!_Xinv\<15\>\/MNMOS_s \
 N_GND!_Xinv\<14\>\/MNMOS_s N_GND!_Xinv\<13\>\/MNMOS_s \
 N_GND!_Xinv\<12\>\/MNMOS_s N_GND!_Xinv\<11\>\/MNMOS_s \
 N_GND!_Xinv\<10\>\/MNMOS_s N_GND!_Xinv\<9\>\/MNMOS_s \
 N_GND!_Xinv\<8\>\/MNMOS_s N_GND!_Xinv\<7\>\/MNMOS_s N_GND!_Xinv\<6\>\/MNMOS_s \
 N_GND!_Xinv\<5\>\/MNMOS_s N_GND!_Xinv\<4\>\/MNMOS_s N_GND!_Xinv\<3\>\/MNMOS_s \
 N_GND!_Xinv\<2\>\/MNMOS_s N_GND!_Xinv\<1\>\/MNMOS_s N_GND!_Xinv\<0\>\/MNMOS_s \
 N_GND!_XI5\<15\>\/Mnmos_s N_GND!_XI5\<13\>\/Mnmos_s N_GND!_XI5\<11\>\/Mnmos_s \
 N_GND!_XI5\<9\>\/Mnmos_s N_GND!_XI5\<7\>\/Mnmos_s N_GND!_XI5\<5\>\/Mnmos_s \
 N_GND!_XI5\<3\>\/Mnmos_s N_GND!_XI5\<1\>\/Mnmos_s N_GND!_XI0\<0\>\/Mnmos_b_s \
 N_GND!_XI0\<1\>\/Mnmos_s N_GND!_XI0\<2\>\/Mnmos_b_s N_GND!_XI0\<3\>\/Mnmos_s \
 N_GND!_XI0\<4\>\/Mnmos_b_s N_GND!_XI0\<5\>\/Mnmos_s \
 N_GND!_XI0\<6\>\/Mnmos_b_s N_GND!_XI0\<7\>\/Mnmos_s \
 N_GND!_XI0\<8\>\/Mnmos_b_s N_GND!_XI0\<9\>\/Mnmos_s \
 N_GND!_XI0\<10\>\/Mnmos_b_s N_GND!_XI0\<11\>\/Mnmos_s \
 N_GND!_XI0\<12\>\/Mnmos_b_s N_GND!_XI0\<13\>\/Mnmos_s \
 N_GND!_XI0\<14\>\/Mnmos_b_s N_GND!_XI0\<15\>\/Mnmos_s \
 N_GND!_XI0\<16\>\/Mnmos_b_s N_GND!_XI0\<17\>\/Mnmos_s \
 N_GND!_XI0\<18\>\/Mnmos_b_s N_GND!_XI0\<19\>\/Mnmos_s \
 N_GND!_XI0\<20\>\/Mnmos_b_s N_GND!_XI0\<21\>\/Mnmos_s \
 N_GND!_XI0\<22\>\/Mnmos_b_s N_GND!_XI0\<23\>\/Mnmos_s \
 N_GND!_XI0\<24\>\/Mnmos_b_s N_GND!_XI0\<25\>\/Mnmos_s \
 N_GND!_XI0\<26\>\/Mnmos_b_s N_GND!_XI0\<27\>\/Mnmos_s \
 N_GND!_XI0\<28\>\/Mnmos_b_s N_GND!_XI0\<29\>\/Mnmos_s \
 N_GND!_XI0\<30\>\/Mnmos_b_s N_GND!_Xinv\<15\>\/MNMOS_b \
 N_GND!_Xinv\<13\>\/MNMOS_b N_GND!_Xinv\<11\>\/MNMOS_b \
 N_GND!_Xinv\<9\>\/MNMOS_b N_GND!_Xinv\<7\>\/MNMOS_b N_GND!_Xinv\<5\>\/MNMOS_b \
 N_GND!_Xinv\<3\>\/MNMOS_b N_GND!_Xinv\<1\>\/MNMOS_b N_GND!_Xtgate\<0\>\/MM0_b \
 N_GND!_XI5\<13\>\/Maccess_b N_GND!_XI5\<11\>\/Maccess_b \
 N_GND!_XI5\<9\>\/Maccess_b N_GND!_XI5\<7\>\/Maccess_b \
 N_GND!_XI5\<5\>\/Maccess_b N_GND!_XI5\<3\>\/Maccess_b \
 N_GND!_XI5\<1\>\/Maccess_b N_GND!_XI5\<15\>\/Maccess_b N_GND!_c_558_p \
 N_GND!_c_559_p N_GND!_c_590_p N_GND!_c_591_p N_GND!_c_606_p N_GND!_c_607_p \
 N_GND!_c_574_p N_GND!_c_575_p N_GND!_c_622_p N_GND!_c_623_p N_GND!_c_638_p \
 N_GND!_c_639_p N_GND!_c_963_p N_GND!_c_654_p N_GND!_c_989_p N_GND!_c_668_p \
 N_GND!_c_556_p N_GND!_c_564_p N_GND!_c_792_p N_GND!_c_572_p N_GND!_c_580_p \
 N_GND!_c_849_p N_GND!_c_588_p N_GND!_c_596_p N_GND!_c_875_p N_GND!_c_604_p \
 N_GND!_c_612_p N_GND!_c_901_p N_GND!_c_620_p N_GND!_c_628_p N_GND!_c_927_p \
 N_GND!_c_636_p N_GND!_c_644_p N_GND!_c_953_p N_GND!_c_652_p N_GND!_c_659_p \
 N_GND!_c_979_p N_GND!_c_666_p N_GND!_c_673_p N_GND!_c_1005_p N_GND!_c_717_p \
 N_GND!_c_836_p N_GND!_c_862_p N_GND!_c_888_p N_GND!_c_914_p N_GND!_c_940_p \
 N_GND!_c_966_p N_GND!_c_992_p N_GND!_c_51_p N_GND!_c_57_p N_GND!_c_63_p \
 N_GND!_c_69_p N_GND!_c_75_p N_GND!_c_81_p N_GND!_c_87_p N_GND!_c_3_p GND! \
 N_GND!_c_4_p N_GND!_c_139_p GND! GND! N_GND!_c_152_p N_GND!_c_165_p GND! GND! \
 N_GND!_c_191_p GND! GND! N_GND!_c_204_p N_GND!_c_217_p GND! GND! \
 N_GND!_c_244_p GND! GND! N_GND!_c_257_p N_GND!_c_270_p GND! GND! \
 N_GND!_c_283_p N_GND!_c_296_p GND! GND! N_GND!_c_309_p N_GND!_c_322_p GND! \
 GND! N_GND!_c_336_p N_GND!_c_349_p GND! GND! N_GND!_c_362_p N_GND!_c_375_p \
 GND! GND! N_GND!_c_388_p N_GND!_c_401_p GND! GND! N_GND!_c_414_p \
 N_GND!_c_427_p GND! GND! N_GND!_c_444_p N_GND!_c_457_p GND! GND! \
 N_GND!_c_470_p N_GND!_c_483_p GND! GND! N_GND!_c_496_p N_GND!_c_509_p GND! \
 GND! N_GND!_c_522_p N_GND!_c_535_p GND! GND! GND! GND! GND! GND! GND! GND! \
 GND! GND! GND! GND! GND! GND! GND! GND! GND! GND! GND! GND! GND! GND! GND! \
 GND! GND! GND! GND! GND! GND! GND! GND! GND! GND! GND! GND! GND! GND! GND! \
 GND! GND! N_GND!_c_438_p N_GND!_c_5_p N_GND!_c_9_p N_GND!_c_14_p \
 N_GND!_c_19_p N_GND!_c_24_p N_GND!_c_29_p N_GND!_c_34_p N_GND!_c_39_p \
 N_GND!_c_751_p N_GND!_c_840_p N_GND!_c_866_p N_GND!_c_892_p N_GND!_c_918_p \
 N_GND!_c_944_p N_GND!_c_970_p N_GND!_c_996_p N_GND!_c_10_p N_GND!_c_15_p \
 N_GND!_c_20_p N_GND!_c_25_p N_GND!_c_30_p N_GND!_c_35_p N_GND!_c_40_p \
 N_GND!_c_178_p N_GND!_c_231_p )  PM_SYSTEMLAYOUT_2\%GND!
x_PM_SYSTEMLAYOUT_2\%BL_I\<0\> ( N_BL_I\<0\>_Xtgate\<0\>\/MM0_d \
 N_BL_I\<0\>_XI5\<15\>\/Maccess_d N_BL_I\<0\>_XI5\<13\>\/Maccess_d \
 N_BL_I\<0\>_XI5\<11\>\/Maccess_d N_BL_I\<0\>_XI5\<9\>\/Maccess_d \
 N_BL_I\<0\>_XI5\<7\>\/Maccess_d N_BL_I\<0\>_XI5\<5\>\/Maccess_d \
 N_BL_I\<0\>_XI5\<3\>\/Maccess_d N_BL_I\<0\>_XI5\<1\>\/Maccess_d \
 N_BL_I\<0\>_Xtgate\<0\>\/MM1_d N_BL_I\<0\>_Xprecharge\<0\>\/MM0_d \
 N_BL_I\<0\>_Xprecharge\<0\>\/MM4_s N_BL_I\<0\>_c_1145_p N_BL_I\<0\>_c_1094_n \
 N_BL_I\<0\>_c_1099_n N_BL_I\<0\>_c_1104_n N_BL_I\<0\>_c_1105_n \
 N_BL_I\<0\>_c_1110_n N_BL_I\<0\>_c_1111_n N_BL_I\<0\>_c_1116_n \
 N_BL_I\<0\>_c_1117_n N_BL_I\<0\>_c_1122_n N_BL_I\<0\>_c_1123_n \
 N_BL_I\<0\>_c_1128_n N_BL_I\<0\>_c_1129_n N_BL_I\<0\>_c_1134_n \
 N_BL_I\<0\>_c_1135_n N_BL_I\<0\>_c_1140_n )  PM_SYSTEMLAYOUT_2\%BL_I\<0\>
x_PM_SYSTEMLAYOUT_2\%BL\<0\> ( N_BL\<0\>_Xtgate\<0\>\/MM0_s \
 N_BL\<0\>_Xtgate\<0\>\/MM1_s BL\<0\> N_BL\<0\>_c_1362_p N_BL\<0\>_c_1351_n \
 N_BL\<0\>_c_1353_n )  PM_SYSTEMLAYOUT_2\%BL\<0\>
x_PM_SYSTEMLAYOUT_2\%BL_B\<0\> ( N_BL_B\<0\>_Xtgate\<0\>\/MNMOS_s \
 N_BL_B\<0\>_Xtgate\<0\>\/MPMOS_s N_BL_B\<0\>_c_1383_n N_BL_B\<0\>_c_1388_p \
 N_BL_B\<0\>_c_1378_n BL_B\<0\> )  PM_SYSTEMLAYOUT_2\%BL_B\<0\>
x_PM_SYSTEMLAYOUT_2\%BL_I_B\<0\> ( N_BL_I_B\<0\>_Xtgate\<0\>\/MNMOS_d \
 N_BL_I_B\<0\>_XI5\<15\>\/Maccess_b_d N_BL_I_B\<0\>_XI5\<13\>\/Maccess_b_d \
 N_BL_I_B\<0\>_XI5\<11\>\/Maccess_b_d N_BL_I_B\<0\>_XI5\<9\>\/Maccess_b_d \
 N_BL_I_B\<0\>_XI5\<7\>\/Maccess_b_d N_BL_I_B\<0\>_XI5\<5\>\/Maccess_b_d \
 N_BL_I_B\<0\>_XI5\<3\>\/Maccess_b_d N_BL_I_B\<0\>_XI5\<1\>\/Maccess_b_d \
 N_BL_I_B\<0\>_Xprecharge\<0\>\/MM4_d N_BL_I_B\<0\>_Xtgate\<0\>\/MPMOS_d \
 N_BL_I_B\<0\>_Xprecharge\<0\>\/MM3_d N_BL_I_B\<0\>_c_1459_n \
 N_BL_I_B\<0\>_c_1432_n N_BL_I_B\<0\>_c_1435_n N_BL_I_B\<0\>_c_1495_p \
 N_BL_I_B\<0\>_c_1438_n N_BL_I_B\<0\>_c_1501_p N_BL_I_B\<0\>_c_1441_n \
 N_BL_I_B\<0\>_c_1507_p N_BL_I_B\<0\>_c_1444_n N_BL_I_B\<0\>_c_1513_p \
 N_BL_I_B\<0\>_c_1447_n N_BL_I_B\<0\>_c_1519_p N_BL_I_B\<0\>_c_1450_n \
 N_BL_I_B\<0\>_c_1525_p N_BL_I_B\<0\>_c_1453_n N_BL_I_B\<0\>_c_1531_p )  \
 PM_SYSTEMLAYOUT_2\%BL_I_B\<0\>
x_PM_SYSTEMLAYOUT_2\%BL_I_B\<1\> ( N_BL_I_B\<1\>_XI0\<0\>\/Maccess_b_d \
 N_BL_I_B\<1\>_Xtgate\<1\>\/MNMOS_d N_BL_I_B\<1\>_Xtgate\<1\>\/MPMOS_d \
 N_BL_I_B\<1\>_Xprecharge\<1\>\/MM3_d N_BL_I_B\<1\>_Xprecharge\<1\>\/MM4_d \
 N_BL_I_B\<1\>_c_1700_n N_BL_I_B\<1\>_c_1687_n )  PM_SYSTEMLAYOUT_2\%BL_I_B\<1\>
x_PM_SYSTEMLAYOUT_2\%BL_B\<1\> ( N_BL_B\<1\>_Xtgate\<1\>\/MNMOS_s \
 N_BL_B\<1\>_Xtgate\<1\>\/MPMOS_s BL_B\<1\> N_BL_B\<1\>_c_1758_n \
 N_BL_B\<1\>_c_1762_n N_BL_B\<1\>_c_1764_n )  PM_SYSTEMLAYOUT_2\%BL_B\<1\>
x_PM_SYSTEMLAYOUT_2\%BL\<1\> ( N_BL\<1\>_Xtgate\<1\>\/MM0_s \
 N_BL\<1\>_Xtgate\<1\>\/MM1_s N_BL\<1\>_c_1792_n N_BL\<1\>_c_1797_p \
 N_BL\<1\>_c_1795_n BL\<1\> )  PM_SYSTEMLAYOUT_2\%BL\<1\>
x_PM_SYSTEMLAYOUT_2\%BL_I\<1\> ( N_BL_I\<1\>_Xtgate\<1\>\/MM0_d \
 N_BL_I\<1\>_XI0\<0\>\/Maccess_d N_BL_I\<1\>_Xprecharge\<1\>\/MM4_s \
 N_BL_I\<1\>_Xtgate\<1\>\/MM1_d N_BL_I\<1\>_Xprecharge\<1\>\/MM0_d \
 N_BL_I\<1\>_c_1827_n N_BL_I\<1\>_c_1821_n )  PM_SYSTEMLAYOUT_2\%BL_I\<1\>
x_PM_SYSTEMLAYOUT_2\%BL_I\<2\> ( N_BL_I\<2\>_Xtgate\<2\>\/MM0_d \
 N_BL_I\<2\>_XI0\<1\>\/Maccess_d N_BL_I\<2\>_Xtgate\<2\>\/MM1_d \
 N_BL_I\<2\>_Xprecharge\<2\>\/MM0_d N_BL_I\<2\>_Xprecharge\<2\>\/MM4_s \
 N_BL_I\<2\>_c_1904_n N_BL_I\<2\>_c_1891_n )  PM_SYSTEMLAYOUT_2\%BL_I\<2\>
x_PM_SYSTEMLAYOUT_2\%BL\<2\> ( N_BL\<2\>_Xtgate\<2\>\/MM0_s \
 N_BL\<2\>_Xtgate\<2\>\/MM1_s BL\<2\> N_BL\<2\>_c_1974_p N_BL\<2\>_c_1963_n \
 N_BL\<2\>_c_1965_n )  PM_SYSTEMLAYOUT_2\%BL\<2\>
x_PM_SYSTEMLAYOUT_2\%BL_B\<2\> ( N_BL_B\<2\>_Xtgate\<2\>\/MNMOS_s \
 N_BL_B\<2\>_Xtgate\<2\>\/MPMOS_s N_BL_B\<2\>_c_1995_n N_BL_B\<2\>_c_2000_p \
 N_BL_B\<2\>_c_1990_n BL_B\<2\> )  PM_SYSTEMLAYOUT_2\%BL_B\<2\>
x_PM_SYSTEMLAYOUT_2\%BL_I_B\<2\> ( N_BL_I_B\<2\>_Xtgate\<2\>\/MNMOS_d \
 N_BL_I_B\<2\>_XI0\<1\>\/Maccess_b_d N_BL_I_B\<2\>_Xprecharge\<2\>\/MM4_d \
 N_BL_I_B\<2\>_Xtgate\<2\>\/MPMOS_d N_BL_I_B\<2\>_Xprecharge\<2\>\/MM3_d \
 N_BL_I_B\<2\>_c_2029_n N_BL_I_B\<2\>_c_2023_n )  PM_SYSTEMLAYOUT_2\%BL_I_B\<2\>
x_PM_SYSTEMLAYOUT_2\%BL_I_B\<3\> ( N_BL_I_B\<3\>_XI0\<2\>\/Maccess_b_d \
 N_BL_I_B\<3\>_Xtgate\<3\>\/MNMOS_d N_BL_I_B\<3\>_Xtgate\<3\>\/MPMOS_d \
 N_BL_I_B\<3\>_Xprecharge\<3\>\/MM3_d N_BL_I_B\<3\>_Xprecharge\<3\>\/MM4_d \
 N_BL_I_B\<3\>_c_2107_n N_BL_I_B\<3\>_c_2094_n )  PM_SYSTEMLAYOUT_2\%BL_I_B\<3\>
x_PM_SYSTEMLAYOUT_2\%BL_B\<3\> ( N_BL_B\<3\>_Xtgate\<3\>\/MNMOS_s \
 N_BL_B\<3\>_Xtgate\<3\>\/MPMOS_s BL_B\<3\> N_BL_B\<3\>_c_2165_n \
 N_BL_B\<3\>_c_2169_n N_BL_B\<3\>_c_2171_n )  PM_SYSTEMLAYOUT_2\%BL_B\<3\>
x_PM_SYSTEMLAYOUT_2\%BL\<3\> ( N_BL\<3\>_Xtgate\<3\>\/MM0_s \
 N_BL\<3\>_Xtgate\<3\>\/MM1_s N_BL\<3\>_c_2199_n N_BL\<3\>_c_2204_p \
 N_BL\<3\>_c_2202_n BL\<3\> )  PM_SYSTEMLAYOUT_2\%BL\<3\>
x_PM_SYSTEMLAYOUT_2\%BL_I\<3\> ( N_BL_I\<3\>_Xtgate\<3\>\/MM0_d \
 N_BL_I\<3\>_XI0\<2\>\/Maccess_d N_BL_I\<3\>_Xprecharge\<3\>\/MM4_s \
 N_BL_I\<3\>_Xtgate\<3\>\/MM1_d N_BL_I\<3\>_Xprecharge\<3\>\/MM0_d \
 N_BL_I\<3\>_c_2234_n N_BL_I\<3\>_c_2228_n )  PM_SYSTEMLAYOUT_2\%BL_I\<3\>
x_PM_SYSTEMLAYOUT_2\%BL_I\<4\> ( N_BL_I\<4\>_Xtgate\<4\>\/MM0_d \
 N_BL_I\<4\>_XI0\<3\>\/Maccess_d N_BL_I\<4\>_Xtgate\<4\>\/MM1_d \
 N_BL_I\<4\>_Xprecharge\<4\>\/MM0_d N_BL_I\<4\>_Xprecharge\<4\>\/MM4_s \
 N_BL_I\<4\>_c_2311_n N_BL_I\<4\>_c_2298_n )  PM_SYSTEMLAYOUT_2\%BL_I\<4\>
x_PM_SYSTEMLAYOUT_2\%BL\<4\> ( N_BL\<4\>_Xtgate\<4\>\/MM0_s \
 N_BL\<4\>_Xtgate\<4\>\/MM1_s BL\<4\> N_BL\<4\>_c_2381_p N_BL\<4\>_c_2370_n \
 N_BL\<4\>_c_2372_n )  PM_SYSTEMLAYOUT_2\%BL\<4\>
x_PM_SYSTEMLAYOUT_2\%BL_B\<4\> ( N_BL_B\<4\>_Xtgate\<4\>\/MNMOS_s \
 N_BL_B\<4\>_Xtgate\<4\>\/MPMOS_s N_BL_B\<4\>_c_2402_n N_BL_B\<4\>_c_2407_p \
 N_BL_B\<4\>_c_2397_n BL_B\<4\> )  PM_SYSTEMLAYOUT_2\%BL_B\<4\>
x_PM_SYSTEMLAYOUT_2\%BL_I_B\<4\> ( N_BL_I_B\<4\>_Xtgate\<4\>\/MNMOS_d \
 N_BL_I_B\<4\>_XI0\<3\>\/Maccess_b_d N_BL_I_B\<4\>_Xprecharge\<4\>\/MM4_d \
 N_BL_I_B\<4\>_Xtgate\<4\>\/MPMOS_d N_BL_I_B\<4\>_Xprecharge\<4\>\/MM3_d \
 N_BL_I_B\<4\>_c_2436_n N_BL_I_B\<4\>_c_2430_n )  PM_SYSTEMLAYOUT_2\%BL_I_B\<4\>
x_PM_SYSTEMLAYOUT_2\%BL_I_B\<5\> ( N_BL_I_B\<5\>_XI0\<4\>\/Maccess_b_d \
 N_BL_I_B\<5\>_Xtgate\<5\>\/MNMOS_d N_BL_I_B\<5\>_Xtgate\<5\>\/MPMOS_d \
 N_BL_I_B\<5\>_Xprecharge\<5\>\/MM3_d N_BL_I_B\<5\>_Xprecharge\<5\>\/MM4_d \
 N_BL_I_B\<5\>_c_2514_n N_BL_I_B\<5\>_c_2501_n )  PM_SYSTEMLAYOUT_2\%BL_I_B\<5\>
x_PM_SYSTEMLAYOUT_2\%BL_B\<5\> ( N_BL_B\<5\>_Xtgate\<5\>\/MNMOS_s \
 N_BL_B\<5\>_Xtgate\<5\>\/MPMOS_s BL_B\<5\> N_BL_B\<5\>_c_2572_n \
 N_BL_B\<5\>_c_2576_n N_BL_B\<5\>_c_2578_n )  PM_SYSTEMLAYOUT_2\%BL_B\<5\>
x_PM_SYSTEMLAYOUT_2\%BL\<5\> ( N_BL\<5\>_Xtgate\<5\>\/MM0_s \
 N_BL\<5\>_Xtgate\<5\>\/MM1_s N_BL\<5\>_c_2606_n N_BL\<5\>_c_2611_p \
 N_BL\<5\>_c_2609_n BL\<5\> )  PM_SYSTEMLAYOUT_2\%BL\<5\>
x_PM_SYSTEMLAYOUT_2\%BL_I\<5\> ( N_BL_I\<5\>_Xtgate\<5\>\/MM0_d \
 N_BL_I\<5\>_XI0\<4\>\/Maccess_d N_BL_I\<5\>_Xprecharge\<5\>\/MM4_s \
 N_BL_I\<5\>_Xtgate\<5\>\/MM1_d N_BL_I\<5\>_Xprecharge\<5\>\/MM0_d \
 N_BL_I\<5\>_c_2641_n N_BL_I\<5\>_c_2635_n )  PM_SYSTEMLAYOUT_2\%BL_I\<5\>
x_PM_SYSTEMLAYOUT_2\%BL_I\<6\> ( N_BL_I\<6\>_Xtgate\<6\>\/MM0_d \
 N_BL_I\<6\>_XI0\<5\>\/Maccess_d N_BL_I\<6\>_Xtgate\<6\>\/MM1_d \
 N_BL_I\<6\>_Xprecharge\<6\>\/MM0_d N_BL_I\<6\>_Xprecharge\<6\>\/MM4_s \
 N_BL_I\<6\>_c_2718_n N_BL_I\<6\>_c_2705_n )  PM_SYSTEMLAYOUT_2\%BL_I\<6\>
x_PM_SYSTEMLAYOUT_2\%BL\<6\> ( N_BL\<6\>_Xtgate\<6\>\/MM0_s \
 N_BL\<6\>_Xtgate\<6\>\/MM1_s BL\<6\> N_BL\<6\>_c_2788_p N_BL\<6\>_c_2777_n \
 N_BL\<6\>_c_2779_n )  PM_SYSTEMLAYOUT_2\%BL\<6\>
x_PM_SYSTEMLAYOUT_2\%BL_B\<6\> ( N_BL_B\<6\>_Xtgate\<6\>\/MNMOS_s \
 N_BL_B\<6\>_Xtgate\<6\>\/MPMOS_s N_BL_B\<6\>_c_2809_n N_BL_B\<6\>_c_2814_p \
 N_BL_B\<6\>_c_2804_n BL_B\<6\> )  PM_SYSTEMLAYOUT_2\%BL_B\<6\>
x_PM_SYSTEMLAYOUT_2\%BL_I_B\<6\> ( N_BL_I_B\<6\>_Xtgate\<6\>\/MNMOS_d \
 N_BL_I_B\<6\>_XI0\<5\>\/Maccess_b_d N_BL_I_B\<6\>_Xprecharge\<6\>\/MM4_d \
 N_BL_I_B\<6\>_Xtgate\<6\>\/MPMOS_d N_BL_I_B\<6\>_Xprecharge\<6\>\/MM3_d \
 N_BL_I_B\<6\>_c_2843_n N_BL_I_B\<6\>_c_2837_n )  PM_SYSTEMLAYOUT_2\%BL_I_B\<6\>
x_PM_SYSTEMLAYOUT_2\%BL_I_B\<7\> ( N_BL_I_B\<7\>_XI0\<6\>\/Maccess_b_d \
 N_BL_I_B\<7\>_Xtgate\<7\>\/MNMOS_d N_BL_I_B\<7\>_Xtgate\<7\>\/MPMOS_d \
 N_BL_I_B\<7\>_Xprecharge\<7\>\/MM3_d N_BL_I_B\<7\>_Xprecharge\<7\>\/MM4_d \
 N_BL_I_B\<7\>_c_2921_n N_BL_I_B\<7\>_c_2908_n )  PM_SYSTEMLAYOUT_2\%BL_I_B\<7\>
x_PM_SYSTEMLAYOUT_2\%BL_B\<7\> ( N_BL_B\<7\>_Xtgate\<7\>\/MNMOS_s \
 N_BL_B\<7\>_Xtgate\<7\>\/MPMOS_s BL_B\<7\> N_BL_B\<7\>_c_2979_n \
 N_BL_B\<7\>_c_2983_n N_BL_B\<7\>_c_2985_n )  PM_SYSTEMLAYOUT_2\%BL_B\<7\>
x_PM_SYSTEMLAYOUT_2\%BL\<7\> ( N_BL\<7\>_Xtgate\<7\>\/MM0_s \
 N_BL\<7\>_Xtgate\<7\>\/MM1_s N_BL\<7\>_c_3013_n N_BL\<7\>_c_3018_p \
 N_BL\<7\>_c_3016_n BL\<7\> )  PM_SYSTEMLAYOUT_2\%BL\<7\>
x_PM_SYSTEMLAYOUT_2\%BL_I\<7\> ( N_BL_I\<7\>_Xtgate\<7\>\/MM0_d \
 N_BL_I\<7\>_XI0\<6\>\/Maccess_d N_BL_I\<7\>_Xprecharge\<7\>\/MM4_s \
 N_BL_I\<7\>_Xtgate\<7\>\/MM1_d N_BL_I\<7\>_Xprecharge\<7\>\/MM0_d \
 N_BL_I\<7\>_c_3048_n N_BL_I\<7\>_c_3042_n )  PM_SYSTEMLAYOUT_2\%BL_I\<7\>
x_PM_SYSTEMLAYOUT_2\%A\<1\> ( N_A\<1\>_Xtgate\<8\>\/MM0_g \
 N_A\<1\>_Xtgate\<8\>\/MNMOS_g N_A\<1\>_Xtgate\<9\>\/MNMOS_g \
 N_A\<1\>_Xtgate\<9\>\/MM0_g N_A\<1\>_Xtgate\<10\>\/MM0_g \
 N_A\<1\>_Xtgate\<10\>\/MNMOS_g N_A\<1\>_Xtgate\<11\>\/MNMOS_g \
 N_A\<1\>_Xtgate\<11\>\/MM0_g N_A\<1\>_Xtgate\<12\>\/MM0_g \
 N_A\<1\>_Xtgate\<12\>\/MNMOS_g N_A\<1\>_Xtgate\<13\>\/MNMOS_g \
 N_A\<1\>_Xtgate\<13\>\/MM0_g N_A\<1\>_Xtgate\<14\>\/MM0_g \
 N_A\<1\>_Xtgate\<14\>\/MNMOS_g N_A\<1\>_Xtgate\<15\>\/MNMOS_g \
 N_A\<1\>_Xtgate\<15\>\/MM0_g A\<1\> N_A\<1\>_c_3114_n N_A\<1\>_c_3146_n \
 N_A\<1\>_c_3113_n )  PM_SYSTEMLAYOUT_2\%A\<1\>
x_PM_SYSTEMLAYOUT_2\%A_B\<1\> ( N_A_B\<1\>_Xtgate\<8\>\/MM1_g \
 N_A_B\<1\>_Xtgate\<8\>\/MPMOS_g N_A_B\<1\>_Xtgate\<9\>\/MPMOS_g \
 N_A_B\<1\>_Xtgate\<9\>\/MM1_g N_A_B\<1\>_Xtgate\<10\>\/MM1_g \
 N_A_B\<1\>_Xtgate\<10\>\/MPMOS_g N_A_B\<1\>_Xtgate\<11\>\/MPMOS_g \
 N_A_B\<1\>_Xtgate\<11\>\/MM1_g N_A_B\<1\>_Xtgate\<12\>\/MM1_g \
 N_A_B\<1\>_Xtgate\<12\>\/MPMOS_g N_A_B\<1\>_Xtgate\<13\>\/MPMOS_g \
 N_A_B\<1\>_Xtgate\<13\>\/MM1_g N_A_B\<1\>_Xtgate\<14\>\/MM1_g \
 N_A_B\<1\>_Xtgate\<14\>\/MPMOS_g N_A_B\<1\>_Xtgate\<15\>\/MPMOS_g \
 N_A_B\<1\>_Xtgate\<15\>\/MM1_g A_B\<1\> N_A_B\<1\>_c_3326_n \
 N_A_B\<1\>_c_3358_n N_A_B\<1\>_c_3359_n )  PM_SYSTEMLAYOUT_2\%A_B\<1\>
x_PM_SYSTEMLAYOUT_2\%BL_I\<8\> ( N_BL_I\<8\>_Xtgate\<8\>\/MM0_d \
 N_BL_I\<8\>_XI0\<7\>\/Maccess_d N_BL_I\<8\>_Xtgate\<8\>\/MM1_d \
 N_BL_I\<8\>_Xprecharge\<8\>\/MM0_d N_BL_I\<8\>_Xprecharge\<8\>\/MM4_s \
 N_BL_I\<8\>_c_3607_n N_BL_I\<8\>_c_3594_n )  PM_SYSTEMLAYOUT_2\%BL_I\<8\>
x_PM_SYSTEMLAYOUT_2\%BL\<8\> ( N_BL\<8\>_Xtgate\<8\>\/MM0_s \
 N_BL\<8\>_Xtgate\<8\>\/MM1_s BL\<8\> N_BL\<8\>_c_3667_n N_BL\<8\>_c_3678_n \
 N_BL\<8\>_c_3669_n )  PM_SYSTEMLAYOUT_2\%BL\<8\>
x_PM_SYSTEMLAYOUT_2\%BL_B\<8\> ( N_BL_B\<8\>_Xtgate\<8\>\/MNMOS_s \
 N_BL_B\<8\>_Xtgate\<8\>\/MPMOS_s N_BL_B\<8\>_c_3696_n N_BL_B\<8\>_c_3698_n \
 N_BL_B\<8\>_c_3693_n BL_B\<8\> )  PM_SYSTEMLAYOUT_2\%BL_B\<8\>
x_PM_SYSTEMLAYOUT_2\%BL_I_B\<8\> ( N_BL_I_B\<8\>_Xtgate\<8\>\/MNMOS_d \
 N_BL_I_B\<8\>_XI0\<7\>\/Maccess_b_d N_BL_I_B\<8\>_Xprecharge\<8\>\/MM4_d \
 N_BL_I_B\<8\>_Xtgate\<8\>\/MPMOS_d N_BL_I_B\<8\>_Xprecharge\<8\>\/MM3_d \
 N_BL_I_B\<8\>_c_3729_n N_BL_I_B\<8\>_c_3724_n )  PM_SYSTEMLAYOUT_2\%BL_I_B\<8\>
x_PM_SYSTEMLAYOUT_2\%BL_I_B\<9\> ( N_BL_I_B\<9\>_XI0\<8\>\/Maccess_b_d \
 N_BL_I_B\<9\>_Xtgate\<9\>\/MNMOS_d N_BL_I_B\<9\>_Xtgate\<9\>\/MPMOS_d \
 N_BL_I_B\<9\>_Xprecharge\<9\>\/MM3_d N_BL_I_B\<9\>_Xprecharge\<9\>\/MM4_d \
 N_BL_I_B\<9\>_c_3798_n N_BL_I_B\<9\>_c_3793_n )  PM_SYSTEMLAYOUT_2\%BL_I_B\<9\>
x_PM_SYSTEMLAYOUT_2\%BL_B\<9\> ( N_BL_B\<9\>_Xtgate\<9\>\/MNMOS_s \
 N_BL_B\<9\>_Xtgate\<9\>\/MPMOS_s BL_B\<9\> N_BL_B\<9\>_c_3862_n \
 N_BL_B\<9\>_c_3876_n N_BL_B\<9\>_c_3867_n )  PM_SYSTEMLAYOUT_2\%BL_B\<9\>
x_PM_SYSTEMLAYOUT_2\%BL\<9\> ( N_BL\<9\>_Xtgate\<9\>\/MM0_s \
 N_BL\<9\>_Xtgate\<9\>\/MM1_s N_BL\<9\>_c_3892_n N_BL\<9\>_c_3894_n \
 N_BL\<9\>_c_3907_n BL\<9\> )  PM_SYSTEMLAYOUT_2\%BL\<9\>
x_PM_SYSTEMLAYOUT_2\%BL_I\<9\> ( N_BL_I\<9\>_Xtgate\<9\>\/MM0_d \
 N_BL_I\<9\>_XI0\<8\>\/Maccess_d N_BL_I\<9\>_Xprecharge\<9\>\/MM4_s \
 N_BL_I\<9\>_Xtgate\<9\>\/MM1_d N_BL_I\<9\>_Xprecharge\<9\>\/MM0_d \
 N_BL_I\<9\>_c_3926_n N_BL_I\<9\>_c_3921_n )  PM_SYSTEMLAYOUT_2\%BL_I\<9\>
x_PM_SYSTEMLAYOUT_2\%BL_I\<10\> ( N_BL_I\<10\>_Xtgate\<10\>\/MM0_d \
 N_BL_I\<10\>_XI0\<9\>\/Maccess_d N_BL_I\<10\>_Xtgate\<10\>\/MM1_d \
 N_BL_I\<10\>_Xprecharge\<10\>\/MM0_d N_BL_I\<10\>_Xprecharge\<10\>\/MM4_s \
 N_BL_I\<10\>_c_3994_n N_BL_I\<10\>_c_3989_n )  PM_SYSTEMLAYOUT_2\%BL_I\<10\>
x_PM_SYSTEMLAYOUT_2\%BL\<10\> ( N_BL\<10\>_Xtgate\<10\>\/MM0_s \
 N_BL\<10\>_Xtgate\<10\>\/MM1_s BL\<10\> N_BL\<10\>_c_4058_n \
 N_BL\<10\>_c_4069_n N_BL\<10\>_c_4060_n )  PM_SYSTEMLAYOUT_2\%BL\<10\>
x_PM_SYSTEMLAYOUT_2\%BL_B\<10\> ( N_BL_B\<10\>_Xtgate\<10\>\/MNMOS_s \
 N_BL_B\<10\>_Xtgate\<10\>\/MPMOS_s N_BL_B\<10\>_c_4087_n \
 N_BL_B\<10\>_c_4089_n N_BL_B\<10\>_c_4084_n BL_B\<10\> )  \
 PM_SYSTEMLAYOUT_2\%BL_B\<10\>
x_PM_SYSTEMLAYOUT_2\%BL_I_B\<10\> ( N_BL_I_B\<10\>_Xtgate\<10\>\/MNMOS_d \
 N_BL_I_B\<10\>_XI0\<9\>\/Maccess_b_d N_BL_I_B\<10\>_Xprecharge\<10\>\/MM4_d \
 N_BL_I_B\<10\>_Xtgate\<10\>\/MPMOS_d N_BL_I_B\<10\>_Xprecharge\<10\>\/MM3_d \
 N_BL_I_B\<10\>_c_4120_n N_BL_I_B\<10\>_c_4115_n )  \
 PM_SYSTEMLAYOUT_2\%BL_I_B\<10\>
x_PM_SYSTEMLAYOUT_2\%BL_I_B\<11\> ( N_BL_I_B\<11\>_XI0\<10\>\/Maccess_b_d \
 N_BL_I_B\<11\>_Xtgate\<11\>\/MNMOS_d N_BL_I_B\<11\>_Xtgate\<11\>\/MPMOS_d \
 N_BL_I_B\<11\>_Xprecharge\<11\>\/MM3_d N_BL_I_B\<11\>_Xprecharge\<11\>\/MM4_d \
 N_BL_I_B\<11\>_c_4189_n N_BL_I_B\<11\>_c_4184_n )  \
 PM_SYSTEMLAYOUT_2\%BL_I_B\<11\>
x_PM_SYSTEMLAYOUT_2\%BL_B\<11\> ( N_BL_B\<11\>_Xtgate\<11\>\/MNMOS_s \
 N_BL_B\<11\>_Xtgate\<11\>\/MPMOS_s BL_B\<11\> N_BL_B\<11\>_c_4253_n \
 N_BL_B\<11\>_c_4267_n N_BL_B\<11\>_c_4258_n )  PM_SYSTEMLAYOUT_2\%BL_B\<11\>
x_PM_SYSTEMLAYOUT_2\%BL\<11\> ( N_BL\<11\>_Xtgate\<11\>\/MM0_s \
 N_BL\<11\>_Xtgate\<11\>\/MM1_s N_BL\<11\>_c_4283_n N_BL\<11\>_c_4285_n \
 N_BL\<11\>_c_4298_n BL\<11\> )  PM_SYSTEMLAYOUT_2\%BL\<11\>
x_PM_SYSTEMLAYOUT_2\%BL_I\<11\> ( N_BL_I\<11\>_Xtgate\<11\>\/MM0_d \
 N_BL_I\<11\>_XI0\<10\>\/Maccess_d N_BL_I\<11\>_Xprecharge\<11\>\/MM4_s \
 N_BL_I\<11\>_Xtgate\<11\>\/MM1_d N_BL_I\<11\>_Xprecharge\<11\>\/MM0_d \
 N_BL_I\<11\>_c_4317_n N_BL_I\<11\>_c_4312_n )  PM_SYSTEMLAYOUT_2\%BL_I\<11\>
x_PM_SYSTEMLAYOUT_2\%BL_I\<12\> ( N_BL_I\<12\>_Xtgate\<12\>\/MM0_d \
 N_BL_I\<12\>_XI0\<11\>\/Maccess_d N_BL_I\<12\>_Xtgate\<12\>\/MM1_d \
 N_BL_I\<12\>_Xprecharge\<12\>\/MM0_d N_BL_I\<12\>_Xprecharge\<12\>\/MM4_s \
 N_BL_I\<12\>_c_4385_n N_BL_I\<12\>_c_4380_n )  PM_SYSTEMLAYOUT_2\%BL_I\<12\>
x_PM_SYSTEMLAYOUT_2\%BL\<12\> ( N_BL\<12\>_Xtgate\<12\>\/MM0_s \
 N_BL\<12\>_Xtgate\<12\>\/MM1_s BL\<12\> N_BL\<12\>_c_4449_n \
 N_BL\<12\>_c_4460_n N_BL\<12\>_c_4451_n )  PM_SYSTEMLAYOUT_2\%BL\<12\>
x_PM_SYSTEMLAYOUT_2\%BL_B\<12\> ( N_BL_B\<12\>_Xtgate\<12\>\/MNMOS_s \
 N_BL_B\<12\>_Xtgate\<12\>\/MPMOS_s N_BL_B\<12\>_c_4478_n \
 N_BL_B\<12\>_c_4480_n N_BL_B\<12\>_c_4475_n BL_B\<12\> )  \
 PM_SYSTEMLAYOUT_2\%BL_B\<12\>
x_PM_SYSTEMLAYOUT_2\%BL_I_B\<12\> ( N_BL_I_B\<12\>_Xtgate\<12\>\/MNMOS_d \
 N_BL_I_B\<12\>_XI0\<11\>\/Maccess_b_d N_BL_I_B\<12\>_Xprecharge\<12\>\/MM4_d \
 N_BL_I_B\<12\>_Xtgate\<12\>\/MPMOS_d N_BL_I_B\<12\>_Xprecharge\<12\>\/MM3_d \
 N_BL_I_B\<12\>_c_4511_n N_BL_I_B\<12\>_c_4506_n )  \
 PM_SYSTEMLAYOUT_2\%BL_I_B\<12\>
x_PM_SYSTEMLAYOUT_2\%BL_I_B\<13\> ( N_BL_I_B\<13\>_XI0\<12\>\/Maccess_b_d \
 N_BL_I_B\<13\>_Xtgate\<13\>\/MNMOS_d N_BL_I_B\<13\>_Xtgate\<13\>\/MPMOS_d \
 N_BL_I_B\<13\>_Xprecharge\<13\>\/MM3_d N_BL_I_B\<13\>_Xprecharge\<13\>\/MM4_d \
 N_BL_I_B\<13\>_c_4580_n N_BL_I_B\<13\>_c_4575_n )  \
 PM_SYSTEMLAYOUT_2\%BL_I_B\<13\>
x_PM_SYSTEMLAYOUT_2\%BL_B\<13\> ( N_BL_B\<13\>_Xtgate\<13\>\/MNMOS_s \
 N_BL_B\<13\>_Xtgate\<13\>\/MPMOS_s BL_B\<13\> N_BL_B\<13\>_c_4644_n \
 N_BL_B\<13\>_c_4658_n N_BL_B\<13\>_c_4649_n )  PM_SYSTEMLAYOUT_2\%BL_B\<13\>
x_PM_SYSTEMLAYOUT_2\%BL\<13\> ( N_BL\<13\>_Xtgate\<13\>\/MM0_s \
 N_BL\<13\>_Xtgate\<13\>\/MM1_s N_BL\<13\>_c_4674_n N_BL\<13\>_c_4676_n \
 N_BL\<13\>_c_4689_n BL\<13\> )  PM_SYSTEMLAYOUT_2\%BL\<13\>
x_PM_SYSTEMLAYOUT_2\%BL_I\<13\> ( N_BL_I\<13\>_Xtgate\<13\>\/MM0_d \
 N_BL_I\<13\>_XI0\<12\>\/Maccess_d N_BL_I\<13\>_Xprecharge\<13\>\/MM4_s \
 N_BL_I\<13\>_Xtgate\<13\>\/MM1_d N_BL_I\<13\>_Xprecharge\<13\>\/MM0_d \
 N_BL_I\<13\>_c_4708_n N_BL_I\<13\>_c_4703_n )  PM_SYSTEMLAYOUT_2\%BL_I\<13\>
x_PM_SYSTEMLAYOUT_2\%BL_I\<14\> ( N_BL_I\<14\>_Xtgate\<14\>\/MM0_d \
 N_BL_I\<14\>_XI0\<13\>\/Maccess_d N_BL_I\<14\>_Xtgate\<14\>\/MM1_d \
 N_BL_I\<14\>_Xprecharge\<14\>\/MM0_d N_BL_I\<14\>_Xprecharge\<14\>\/MM4_s \
 N_BL_I\<14\>_c_4776_n N_BL_I\<14\>_c_4771_n )  PM_SYSTEMLAYOUT_2\%BL_I\<14\>
x_PM_SYSTEMLAYOUT_2\%BL\<14\> ( N_BL\<14\>_Xtgate\<14\>\/MM0_s \
 N_BL\<14\>_Xtgate\<14\>\/MM1_s BL\<14\> N_BL\<14\>_c_4840_n \
 N_BL\<14\>_c_4851_n N_BL\<14\>_c_4842_n )  PM_SYSTEMLAYOUT_2\%BL\<14\>
x_PM_SYSTEMLAYOUT_2\%BL_B\<14\> ( N_BL_B\<14\>_Xtgate\<14\>\/MNMOS_s \
 N_BL_B\<14\>_Xtgate\<14\>\/MPMOS_s N_BL_B\<14\>_c_4869_n \
 N_BL_B\<14\>_c_4871_n N_BL_B\<14\>_c_4866_n BL_B\<14\> )  \
 PM_SYSTEMLAYOUT_2\%BL_B\<14\>
x_PM_SYSTEMLAYOUT_2\%BL_I_B\<14\> ( N_BL_I_B\<14\>_Xtgate\<14\>\/MNMOS_d \
 N_BL_I_B\<14\>_XI0\<13\>\/Maccess_b_d N_BL_I_B\<14\>_Xprecharge\<14\>\/MM4_d \
 N_BL_I_B\<14\>_Xtgate\<14\>\/MPMOS_d N_BL_I_B\<14\>_Xprecharge\<14\>\/MM3_d \
 N_BL_I_B\<14\>_c_4902_n N_BL_I_B\<14\>_c_4897_n )  \
 PM_SYSTEMLAYOUT_2\%BL_I_B\<14\>
x_PM_SYSTEMLAYOUT_2\%BL_I_B\<15\> ( N_BL_I_B\<15\>_XI0\<14\>\/Maccess_b_d \
 N_BL_I_B\<15\>_Xtgate\<15\>\/MNMOS_d N_BL_I_B\<15\>_Xtgate\<15\>\/MPMOS_d \
 N_BL_I_B\<15\>_Xprecharge\<15\>\/MM3_d N_BL_I_B\<15\>_Xprecharge\<15\>\/MM4_d \
 N_BL_I_B\<15\>_c_4971_n N_BL_I_B\<15\>_c_4966_n )  \
 PM_SYSTEMLAYOUT_2\%BL_I_B\<15\>
x_PM_SYSTEMLAYOUT_2\%BL_B\<15\> ( N_BL_B\<15\>_Xtgate\<15\>\/MNMOS_s \
 N_BL_B\<15\>_Xtgate\<15\>\/MPMOS_s BL_B\<15\> N_BL_B\<15\>_c_5037_n \
 N_BL_B\<15\>_c_5051_n N_BL_B\<15\>_c_5042_n )  PM_SYSTEMLAYOUT_2\%BL_B\<15\>
x_PM_SYSTEMLAYOUT_2\%BL\<15\> ( N_BL\<15\>_Xtgate\<15\>\/MM0_s \
 N_BL\<15\>_Xtgate\<15\>\/MM1_s N_BL\<15\>_c_5071_n N_BL\<15\>_c_5073_n \
 N_BL\<15\>_c_5086_n BL\<15\> )  PM_SYSTEMLAYOUT_2\%BL\<15\>
x_PM_SYSTEMLAYOUT_2\%BL_I\<15\> ( N_BL_I\<15\>_Xtgate\<15\>\/MM0_d \
 N_BL_I\<15\>_XI0\<14\>\/Maccess_d N_BL_I\<15\>_Xprecharge\<15\>\/MM4_s \
 N_BL_I\<15\>_Xtgate\<15\>\/MM1_d N_BL_I\<15\>_Xprecharge\<15\>\/MM0_d \
 N_BL_I\<15\>_c_5108_n N_BL_I\<15\>_c_5103_n )  PM_SYSTEMLAYOUT_2\%BL_I\<15\>
x_PM_SYSTEMLAYOUT_2\%A\<2\> ( N_A\<2\>_Xtgate\<16\>\/MM0_g \
 N_A\<2\>_Xtgate\<16\>\/MNMOS_g N_A\<2\>_Xtgate\<17\>\/MNMOS_g \
 N_A\<2\>_Xtgate\<17\>\/MM0_g N_A\<2\>_Xtgate\<18\>\/MM0_g \
 N_A\<2\>_Xtgate\<18\>\/MNMOS_g N_A\<2\>_Xtgate\<19\>\/MNMOS_g \
 N_A\<2\>_Xtgate\<19\>\/MM0_g N_A\<2\>_Xtgate\<20\>\/MM0_g \
 N_A\<2\>_Xtgate\<20\>\/MNMOS_g N_A\<2\>_Xtgate\<21\>\/MNMOS_g \
 N_A\<2\>_Xtgate\<21\>\/MM0_g N_A\<2\>_Xtgate\<22\>\/MM0_g \
 N_A\<2\>_Xtgate\<22\>\/MNMOS_g N_A\<2\>_Xtgate\<23\>\/MNMOS_g \
 N_A\<2\>_Xtgate\<23\>\/MM0_g N_A\<2\>_c_5176_n A\<2\> N_A\<2\>_c_5255_n \
 N_A\<2\>_c_5232_n N_A\<2\>_c_5233_n N_A\<2\>_c_5235_n N_A\<2\>_c_5175_n )  \
 PM_SYSTEMLAYOUT_2\%A\<2\>
x_PM_SYSTEMLAYOUT_2\%A_B\<2\> ( N_A_B\<2\>_Xtgate\<16\>\/MM1_g \
 N_A_B\<2\>_Xtgate\<16\>\/MPMOS_g N_A_B\<2\>_Xtgate\<17\>\/MPMOS_g \
 N_A_B\<2\>_Xtgate\<17\>\/MM1_g N_A_B\<2\>_Xtgate\<18\>\/MM1_g \
 N_A_B\<2\>_Xtgate\<18\>\/MPMOS_g N_A_B\<2\>_Xtgate\<19\>\/MPMOS_g \
 N_A_B\<2\>_Xtgate\<19\>\/MM1_g N_A_B\<2\>_Xtgate\<20\>\/MM1_g \
 N_A_B\<2\>_Xtgate\<20\>\/MPMOS_g N_A_B\<2\>_Xtgate\<21\>\/MPMOS_g \
 N_A_B\<2\>_Xtgate\<21\>\/MM1_g N_A_B\<2\>_Xtgate\<22\>\/MM1_g \
 N_A_B\<2\>_Xtgate\<22\>\/MPMOS_g N_A_B\<2\>_Xtgate\<23\>\/MPMOS_g \
 N_A_B\<2\>_Xtgate\<23\>\/MM1_g N_A_B\<2\>_c_5534_n A_B\<2\> \
 N_A_B\<2\>_c_5601_n N_A_B\<2\>_c_5567_n N_A_B\<2\>_c_5568_n )  \
 PM_SYSTEMLAYOUT_2\%A_B\<2\>
x_PM_SYSTEMLAYOUT_2\%BL_I\<16\> ( N_BL_I\<16\>_Xtgate\<16\>\/MM0_d \
 N_BL_I\<16\>_XI0\<15\>\/Maccess_d N_BL_I\<16\>_Xtgate\<16\>\/MM1_d \
 N_BL_I\<16\>_Xprecharge\<16\>\/MM0_d N_BL_I\<16\>_Xprecharge\<16\>\/MM4_s \
 N_BL_I\<16\>_c_5835_n N_BL_I\<16\>_c_5822_n )  PM_SYSTEMLAYOUT_2\%BL_I\<16\>
x_PM_SYSTEMLAYOUT_2\%BL\<16\> ( N_BL\<16\>_Xtgate\<16\>\/MM0_s \
 N_BL\<16\>_Xtgate\<16\>\/MM1_s BL\<16\> N_BL\<16\>_c_5891_n \
 N_BL\<16\>_c_5902_n N_BL\<16\>_c_5893_n )  PM_SYSTEMLAYOUT_2\%BL\<16\>
x_PM_SYSTEMLAYOUT_2\%BL_B\<16\> ( N_BL_B\<16\>_Xtgate\<16\>\/MNMOS_s \
 N_BL_B\<16\>_Xtgate\<16\>\/MPMOS_s N_BL_B\<16\>_c_5919_n \
 N_BL_B\<16\>_c_5921_n N_BL_B\<16\>_c_5916_n BL_B\<16\> )  \
 PM_SYSTEMLAYOUT_2\%BL_B\<16\>
x_PM_SYSTEMLAYOUT_2\%BL_I_B\<16\> ( N_BL_I_B\<16\>_Xtgate\<16\>\/MNMOS_d \
 N_BL_I_B\<16\>_XI0\<15\>\/Maccess_b_d N_BL_I_B\<16\>_Xprecharge\<16\>\/MM4_d \
 N_BL_I_B\<16\>_Xtgate\<16\>\/MPMOS_d N_BL_I_B\<16\>_Xprecharge\<16\>\/MM3_d \
 N_BL_I_B\<16\>_c_5951_n N_BL_I_B\<16\>_c_5946_n )  \
 PM_SYSTEMLAYOUT_2\%BL_I_B\<16\>
x_PM_SYSTEMLAYOUT_2\%BL_I_B\<17\> ( N_BL_I_B\<17\>_XI0\<16\>\/Maccess_b_d \
 N_BL_I_B\<17\>_Xtgate\<17\>\/MNMOS_d N_BL_I_B\<17\>_Xtgate\<17\>\/MPMOS_d \
 N_BL_I_B\<17\>_Xprecharge\<17\>\/MM3_d N_BL_I_B\<17\>_Xprecharge\<17\>\/MM4_d \
 N_BL_I_B\<17\>_c_6016_n N_BL_I_B\<17\>_c_6011_n )  \
 PM_SYSTEMLAYOUT_2\%BL_I_B\<17\>
x_PM_SYSTEMLAYOUT_2\%BL_B\<17\> ( N_BL_B\<17\>_Xtgate\<17\>\/MNMOS_s \
 N_BL_B\<17\>_Xtgate\<17\>\/MPMOS_s BL_B\<17\> N_BL_B\<17\>_c_6075_n \
 N_BL_B\<17\>_c_6089_n N_BL_B\<17\>_c_6080_n )  PM_SYSTEMLAYOUT_2\%BL_B\<17\>
x_PM_SYSTEMLAYOUT_2\%BL\<17\> ( N_BL\<17\>_Xtgate\<17\>\/MM0_s \
 N_BL\<17\>_Xtgate\<17\>\/MM1_s N_BL\<17\>_c_6104_n N_BL\<17\>_c_6106_n \
 N_BL\<17\>_c_6119_n BL\<17\> )  PM_SYSTEMLAYOUT_2\%BL\<17\>
x_PM_SYSTEMLAYOUT_2\%BL_I\<17\> ( N_BL_I\<17\>_Xtgate\<17\>\/MM0_d \
 N_BL_I\<17\>_XI0\<16\>\/Maccess_d N_BL_I\<17\>_Xprecharge\<17\>\/MM4_s \
 N_BL_I\<17\>_Xtgate\<17\>\/MM1_d N_BL_I\<17\>_Xprecharge\<17\>\/MM0_d \
 N_BL_I\<17\>_c_6137_n N_BL_I\<17\>_c_6132_n )  PM_SYSTEMLAYOUT_2\%BL_I\<17\>
x_PM_SYSTEMLAYOUT_2\%BL_I\<18\> ( N_BL_I\<18\>_Xtgate\<18\>\/MM0_d \
 N_BL_I\<18\>_XI0\<17\>\/Maccess_d N_BL_I\<18\>_Xtgate\<18\>\/MM1_d \
 N_BL_I\<18\>_Xprecharge\<18\>\/MM0_d N_BL_I\<18\>_Xprecharge\<18\>\/MM4_s \
 N_BL_I\<18\>_c_6201_n N_BL_I\<18\>_c_6196_n )  PM_SYSTEMLAYOUT_2\%BL_I\<18\>
x_PM_SYSTEMLAYOUT_2\%BL\<18\> ( N_BL\<18\>_Xtgate\<18\>\/MM0_s \
 N_BL\<18\>_Xtgate\<18\>\/MM1_s BL\<18\> N_BL\<18\>_c_6260_n \
 N_BL\<18\>_c_6271_n N_BL\<18\>_c_6262_n )  PM_SYSTEMLAYOUT_2\%BL\<18\>
x_PM_SYSTEMLAYOUT_2\%BL_B\<18\> ( N_BL_B\<18\>_Xtgate\<18\>\/MNMOS_s \
 N_BL_B\<18\>_Xtgate\<18\>\/MPMOS_s N_BL_B\<18\>_c_6288_n \
 N_BL_B\<18\>_c_6290_n N_BL_B\<18\>_c_6285_n BL_B\<18\> )  \
 PM_SYSTEMLAYOUT_2\%BL_B\<18\>
x_PM_SYSTEMLAYOUT_2\%BL_I_B\<18\> ( N_BL_I_B\<18\>_Xtgate\<18\>\/MNMOS_d \
 N_BL_I_B\<18\>_XI0\<17\>\/Maccess_b_d N_BL_I_B\<18\>_Xprecharge\<18\>\/MM4_d \
 N_BL_I_B\<18\>_Xtgate\<18\>\/MPMOS_d N_BL_I_B\<18\>_Xprecharge\<18\>\/MM3_d \
 N_BL_I_B\<18\>_c_6320_n N_BL_I_B\<18\>_c_6315_n )  \
 PM_SYSTEMLAYOUT_2\%BL_I_B\<18\>
x_PM_SYSTEMLAYOUT_2\%BL_I_B\<19\> ( N_BL_I_B\<19\>_XI0\<18\>\/Maccess_b_d \
 N_BL_I_B\<19\>_Xtgate\<19\>\/MNMOS_d N_BL_I_B\<19\>_Xtgate\<19\>\/MPMOS_d \
 N_BL_I_B\<19\>_Xprecharge\<19\>\/MM3_d N_BL_I_B\<19\>_Xprecharge\<19\>\/MM4_d \
 N_BL_I_B\<19\>_c_6385_n N_BL_I_B\<19\>_c_6380_n )  \
 PM_SYSTEMLAYOUT_2\%BL_I_B\<19\>
x_PM_SYSTEMLAYOUT_2\%BL_B\<19\> ( N_BL_B\<19\>_Xtgate\<19\>\/MNMOS_s \
 N_BL_B\<19\>_Xtgate\<19\>\/MPMOS_s BL_B\<19\> N_BL_B\<19\>_c_6444_n \
 N_BL_B\<19\>_c_6458_n N_BL_B\<19\>_c_6449_n )  PM_SYSTEMLAYOUT_2\%BL_B\<19\>
x_PM_SYSTEMLAYOUT_2\%BL\<19\> ( N_BL\<19\>_Xtgate\<19\>\/MM0_s \
 N_BL\<19\>_Xtgate\<19\>\/MM1_s N_BL\<19\>_c_6473_n N_BL\<19\>_c_6475_n \
 N_BL\<19\>_c_6488_n BL\<19\> )  PM_SYSTEMLAYOUT_2\%BL\<19\>
x_PM_SYSTEMLAYOUT_2\%BL_I\<19\> ( N_BL_I\<19\>_Xtgate\<19\>\/MM0_d \
 N_BL_I\<19\>_XI0\<18\>\/Maccess_d N_BL_I\<19\>_Xprecharge\<19\>\/MM4_s \
 N_BL_I\<19\>_Xtgate\<19\>\/MM1_d N_BL_I\<19\>_Xprecharge\<19\>\/MM0_d \
 N_BL_I\<19\>_c_6506_n N_BL_I\<19\>_c_6501_n )  PM_SYSTEMLAYOUT_2\%BL_I\<19\>
x_PM_SYSTEMLAYOUT_2\%BL_I\<20\> ( N_BL_I\<20\>_Xtgate\<20\>\/MM0_d \
 N_BL_I\<20\>_XI0\<19\>\/Maccess_d N_BL_I\<20\>_Xtgate\<20\>\/MM1_d \
 N_BL_I\<20\>_Xprecharge\<20\>\/MM0_d N_BL_I\<20\>_Xprecharge\<20\>\/MM4_s \
 N_BL_I\<20\>_c_6570_n N_BL_I\<20\>_c_6565_n )  PM_SYSTEMLAYOUT_2\%BL_I\<20\>
x_PM_SYSTEMLAYOUT_2\%BL\<20\> ( N_BL\<20\>_Xtgate\<20\>\/MM0_s \
 N_BL\<20\>_Xtgate\<20\>\/MM1_s BL\<20\> N_BL\<20\>_c_6629_n \
 N_BL\<20\>_c_6640_n N_BL\<20\>_c_6631_n )  PM_SYSTEMLAYOUT_2\%BL\<20\>
x_PM_SYSTEMLAYOUT_2\%BL_B\<20\> ( N_BL_B\<20\>_Xtgate\<20\>\/MNMOS_s \
 N_BL_B\<20\>_Xtgate\<20\>\/MPMOS_s N_BL_B\<20\>_c_6657_n \
 N_BL_B\<20\>_c_6659_n N_BL_B\<20\>_c_6654_n BL_B\<20\> )  \
 PM_SYSTEMLAYOUT_2\%BL_B\<20\>
x_PM_SYSTEMLAYOUT_2\%BL_I_B\<20\> ( N_BL_I_B\<20\>_Xtgate\<20\>\/MNMOS_d \
 N_BL_I_B\<20\>_XI0\<19\>\/Maccess_b_d N_BL_I_B\<20\>_Xprecharge\<20\>\/MM4_d \
 N_BL_I_B\<20\>_Xtgate\<20\>\/MPMOS_d N_BL_I_B\<20\>_Xprecharge\<20\>\/MM3_d \
 N_BL_I_B\<20\>_c_6689_n N_BL_I_B\<20\>_c_6684_n )  \
 PM_SYSTEMLAYOUT_2\%BL_I_B\<20\>
x_PM_SYSTEMLAYOUT_2\%BL_I_B\<21\> ( N_BL_I_B\<21\>_XI0\<20\>\/Maccess_b_d \
 N_BL_I_B\<21\>_Xtgate\<21\>\/MNMOS_d N_BL_I_B\<21\>_Xtgate\<21\>\/MPMOS_d \
 N_BL_I_B\<21\>_Xprecharge\<21\>\/MM3_d N_BL_I_B\<21\>_Xprecharge\<21\>\/MM4_d \
 N_BL_I_B\<21\>_c_6754_n N_BL_I_B\<21\>_c_6749_n )  \
 PM_SYSTEMLAYOUT_2\%BL_I_B\<21\>
x_PM_SYSTEMLAYOUT_2\%BL_B\<21\> ( N_BL_B\<21\>_Xtgate\<21\>\/MNMOS_s \
 N_BL_B\<21\>_Xtgate\<21\>\/MPMOS_s BL_B\<21\> N_BL_B\<21\>_c_6813_n \
 N_BL_B\<21\>_c_6827_n N_BL_B\<21\>_c_6818_n )  PM_SYSTEMLAYOUT_2\%BL_B\<21\>
x_PM_SYSTEMLAYOUT_2\%BL\<21\> ( N_BL\<21\>_Xtgate\<21\>\/MM0_s \